2024_89_CemigReconfigurationCases/1_AlimsCemig/BHPM25/BHPM25SegmentosMT.dss
new line.TR11402903 bus1=BMT168401083.1.2.3,bus2=BMT168401085.1.2.3,Phases=3,Linecode=CABA06_3_3,Length=0.041772000,Units=km
new line.TR11789338 bus1=BMT170697640.1.2.3,bus2=BMT2695505B.1.2.3,Phases=3,Linecode=CABA06_3_3,Length=0.036010000,Units=km
new line.TR11789345 bus1=BMT2695505B.1.2.3,bus2=BMT2695582B.1.2.3,Phases=3,Linecode=CABA06_3_3,Length=0.039062000,Units=km
new line.TR11789359 bus1=BMT2695582B.1.2.3,bus2=BMT7958358B.1.2.3,Phases=3,Linecode=CABA06_3_3,Length=0.022029000,Units=km
new line.TR11789373 bus1=BMT7958358B.1.2.3,bus2=BMT170697641.1.2.3,Phases=3,Linecode=CABA06_3_3,Length=0.031266000,Units=km
new line.TR11804353 bus1=BMT2409121B.1.2.3,bus2=BMT7970160B.1.2.3,Phases=3,Linecode=CABA08_3_3,Length=0.021961000,Units=km
new line.TR11804360 bus1=BMT7970160B.1.2.3,bus2=BMT172553959.1.2.3,Phases=3,Linecode=CABA08_3_3,Length=0.019241000,Units=km
new line.TR11804374 bus1=BMT2060808B.1.2.3,bus2=BMT172553958.1.2.3,Phases=3,Linecode=CABA08_3_3,Length=0.014146000,Units=km
new line.TR11804381 bus1=BMT2409100B.1.2.3,bus2=BMT172553958.1.2.3,Phases=3,Linecode=CABA08_3_3,Length=0.018253000,Units=km
new line.TR12395717 bus1=BMT168401049.1.2.3,bus2=BMT1947002B.1.2.3,Phases=3,Linecode=CABA06_3_3,Length=0.027302000,Units=km
new line.TR12395719 bus1=BMT1947002B.1.2.3,bus2=BMT168401050.1.2.3,Phases=3,Linecode=CABA06_3_3,Length=0.041023000,Units=km
new line.TR12395764 bus1=BMT168401051.1.2.3,bus2=BMT168401052.1.2.3,Phases=3,Linecode=CAB609_3_3,Length=0.005002000,Units=km
new line.TR12503449 bus1=BMT168400744.1.2.3,bus2=BMT168400745.1.2.3,Phases=3,Linecode=CABA08_3_3,Length=0.015625000,Units=km
new line.TR12503450 bus1=BMT168400746.1.2.3,bus2=BMT168400747.1.2.3,Phases=3,Linecode=CABA08_3_3,Length=0.015625000,Units=km
new line.TR12503538 bus1=BMT168400742.1.2.3,bus2=BMT9113149B.1.2.3,Phases=3,Linecode=CABA08_3_3,Length=0.014870000,Units=km
new line.TR12503539 bus1=BMT9113149B.1.2.3,bus2=BMT168400744.1.2.3,Phases=3,Linecode=CABA08_3_3,Length=0.020524000,Units=km
new line.TR12503551 bus1=BMT168400753.1.2.3,bus2=BMT9113149D.1.2.3,Phases=3,Linecode=CABA08_3_3,Length=0.022210000,Units=km
new line.TR12503570 bus1=BMT9113149D.1.2.3,bus2=BMT9113127B.1.2.3,Phases=3,Linecode=CABA08_3_3,Length=0.022367000,Units=km
new line.TR12503572 bus1=BMT9113127B.1.2.3,bus2=BMT9096370B.1.2.3,Phases=3,Linecode=CABA08_3_3,Length=0.024705000,Units=km
new line.TR12503573 bus1=BMT9096370B.1.2.3,bus2=BMT168400754.1.2.3,Phases=3,Linecode=CABA08_3_3,Length=0.010003000,Units=km
new line.TR12503599 bus1=BMT2677949B.1.2.3,bus2=BMT168400862.1.2.3,Phases=3,Linecode=CABA08_3_3,Length=0.031153000,Units=km
new line.TR12503656 bus1=BMT2677963B.1.2.3,bus2=BMT2677970B.1.2.3,Phases=3,Linecode=CABA08_3_3,Length=0.027666000,Units=km
new line.TR12503659 bus1=BMT2677970B.1.2.3,bus2=BMT2678719B.1.2.3,Phases=3,Linecode=CABA08_3_3,Length=0.019215000,Units=km
new line.TR12503685 bus1=BMT2678719B.1.2.3,bus2=BMT168400863.1.2.3,Phases=3,Linecode=CABA08_3_3,Length=0.036065000,Units=km
new line.TR12504225 bus1=BMT168400840.1.2.3,bus2=BMT2672811B.1.2.3,Phases=3,Linecode=CABA08_3_3,Length=0.034938000,Units=km
new line.TR12504229 bus1=BMT2672811B.1.2.3,bus2=BMT2672804B.1.2.3,Phases=3,Linecode=CABA08_3_3,Length=0.033024000,Units=km
new line.TR12504236 bus1=BMT2672804B.1.2.3,bus2=BMT2672832B.1.2.3,Phases=3,Linecode=CABA08_3_3,Length=0.028852000,Units=km
new line.TR12505757 bus1=BMT168400752.1.2.3,bus2=BMT168400751.1.2.3,Phases=3,Linecode=CABA08_3_3,Length=0.029077000,Units=km
new line.TR12506112 bus1=BMT168400753.1.2.3,bus2=BMT2409891B.1.2.3,Phases=3,Linecode=CABA08_3_3,Length=0.015816000,Units=km
new line.TR12506115 bus1=BMT168400865.1.2.3,bus2=BMT2726354B.1.2.3,Phases=3,Linecode=CABA08_3_3,Length=0.024027000,Units=km
new line.TR12506117 bus1=BMT2726382B.1.2.3,bus2=BMT168400737.1.2.3,Phases=3,Linecode=CAB108_3_3,Length=0.037212000,Units=km
new line.TR12506120 bus1=BMT168400753.1.2.3,bus2=BMT168400756.1.2.3,Phases=3,Linecode=CABA08_3_3,Length=0.026180000,Units=km
new line.TR12541295 bus1=BMT168401165.1.2.3,bus2=BMT2704556B.1.2.3,Phases=3,Linecode=CABA08_3_3,Length=0.006710000,Units=km
new line.TR12541297 bus1=BMT2704556B.1.2.3,bus2=BMT9150208B.1.2.3,Phases=3,Linecode=CABA08_3_3,Length=0.011049000,Units=km
new line.TR12541300 bus1=BMT9150208B.1.2.3,bus2=BMT9150215B.1.2.3,Phases=3,Linecode=CABA08_3_3,Length=0.046240000,Units=km
new line.TR12541302 bus1=BMT9150215B.1.2.3,bus2=BMT9150214B.1.2.3,Phases=3,Linecode=CABA08_3_3,Length=0.039835000,Units=km
new line.TR12541307 bus1=BMT9150214B.1.2.3,bus2=BMT9150218B.1.2.3,Phases=3,Linecode=CABA08_3_3,Length=0.029008000,Units=km
new line.TR12541317 bus1=BMT9150218B.1.2.3,bus2=BMT9150221B.1.2.3,Phases=3,Linecode=CABA08_3_3,Length=0.007213000,Units=km
new line.TR12541332 bus1=BMT9150221B.1.2.3,bus2=BMT168401168.1.2.3,Phases=3,Linecode=CABA08_3_3,Length=0.039672000,Units=km
new line.TR12541336 bus1=BMT168401169.1.2.3,bus2=BMT172232790.1.2.3,Phases=3,Linecode=CABA08_3_3,Length=0.030619000,Units=km
new line.TR12541341 bus1=BMT172232790.1.2.3,bus2=BMT172232791.1.2.3,Phases=3,Linecode=CAB907_4_3,Length=0.032459000,Units=km
new line.TR12541363 bus1=BMT172232791.1.2.3,bus2=BMT172232792.1.2.3,Phases=3,Linecode=CABA08_3_3,Length=0.019422000,Units=km
new line.TR12541364 bus1=BMT172232792.1.2.3,bus2=BMT172232793.1.2.3,Phases=3,Linecode=CABA08_3_3,Length=0.017005000,Units=km
new line.TR12575374 bus1=BMT2684697B.1.2.3,bus2=BMT9184480B.1.2.3,Phases=3,Linecode=CABA08_3_3,Length=0.024604000,Units=km
new line.TR12575375 bus1=BMT9184480B.1.2.3,bus2=BMT2382598B.1.2.3,Phases=3,Linecode=CABA08_3_3,Length=0.020597000,Units=km
new line.TR12577214 bus1=BMT2410115B.1.2.3,bus2=BMT168400783.1.2.3,Phases=3,Linecode=CABA08_3_3,Length=0.004474000,Units=km
new line.TR12577215 bus1=BMT168400783.1.2.3,bus2=BMT2674960B.1.2.3,Phases=3,Linecode=CABA08_3_3,Length=0.013004000,Units=km
new line.TR12577218 bus1=BMT168400783.1.2.3,bus2=BMT9186193B.1.2.3,Phases=3,Linecode=CABA08_3_3,Length=0.005387000,Units=km
new line.TR12577219 bus1=BMT168400767.1.2.3,bus2=BMT168400783.1.2.3,Phases=3,Linecode=CABA08_3_3,Length=0.020254000,Units=km
new line.TR12577220 bus1=BMT9186193B.1.2.3,bus2=BMT165573382.1.2.3,Phases=3,Linecode=CABA08_3_3,Length=0.017093000,Units=km
new line.TR12681027 bus1=BMT169627446.1.2.3,bus2=BMT169627448.1.2.3,Phases=3,Linecode=CABA08_3_3,Length=0.030241000,Units=km
new line.TR12681028 bus1=BMT169627448.1.2.3,bus2=BMT4247454.1.2.3,Phases=3,Linecode=CABA08_3_3,Length=0.015529000,Units=km
new line.TR12785018 bus1=BMT2409086B.1.2.3,bus2=BMT171589770.1.2.3,Phases=3,Linecode=CAB108_3_3,Length=0.012210000,Units=km
new line.TR12785024 bus1=BMT2409086B.1.2.3,bus2=BMT2697654B.1.2.3,Phases=3,Linecode=CAB108_3_3,Length=0.024214000,Units=km
new line.TR10926658 bus1=BMT168400834.1.2.3,bus2=BMT7168842B.1.2.3,Phases=3,Linecode=CABA08_3_3,Length=0.007073000,Units=km
new line.TR10926665 bus1=BMT7168842B.1.2.3,bus2=BMT2671586B.1.2.3,Phases=3,Linecode=CABA08_3_3,Length=0.005833000,Units=km
new line.TR10926707 bus1=BMT2671586B.1.2.3,bus2=BMT168400836.1.2.3,Phases=3,Linecode=CABA08_3_3,Length=0.029740000,Units=km
new line.TR10926742 bus1=BMT168400836.1.2.3,bus2=BMT2671600B.1.2.3,Phases=3,Linecode=CABA08_3_3,Length=0.034795000,Units=km
new line.TR10926805 bus1=BMT2671600B.1.2.3,bus2=BMT168400837.1.2.3,Phases=3,Linecode=CABA08_3_3,Length=0.035138000,Units=km
new line.TR10926854 bus1=BMT168400837.1.2.3,bus2=BMT168400838.1.2.3,Phases=3,Linecode=CABA06_3_3,Length=0.019652000,Units=km
new line.TR11666089 bus1=BMT168400732.1.2.3,bus2=BMT7859378B.1.2.3,Phases=3,Linecode=CAB108_3_3,Length=0.017093000,Units=km
new line.TR11666096 bus1=BMT7859378B.1.2.3,bus2=BMT168400733.1.2.3,Phases=3,Linecode=CAB108_3_3,Length=0.014040000,Units=km
new line.TR12131806 bus1=BMT168401142.1.2.3,bus2=BMT168401141.1.2.3,Phases=3,Linecode=CABA08_3_3,Length=0.007073000,Units=km
new line.TR12395780 bus1=BMT168401052.1.2.3,bus2=BMT168401053.1.2.3,Phases=3,Linecode=CAB609_3_3,Length=0.011665000,Units=km
new line.TR12471571 bus1=BMT2688232B.1.2.3,bus2=BMT168400898.1.2.3,Phases=3,Linecode=CABA08_3_3,Length=0.009903000,Units=km
new line.TR12471572 bus1=BMT168400898.1.2.3,bus2=BMT2688239B.1.2.3,Phases=3,Linecode=CABA08_3_3,Length=0.023352000,Units=km
new line.TR12471584 bus1=BMT168401063.1.2.3,bus2=BMT168401064.1.2.3,Phases=3,Linecode=CAB902_4_3,Length=0.007073000,Units=km
new line.TR12508527 bus1=BMT168400825.1.2.3,bus2=BMT168400827.1.2.3,Phases=3,Linecode=CAB103_3_3,Length=0.019032000,Units=km
new line.TR12548192 bus1=BMT9157258C.1.2.3,bus2=BMT169508464.1.2.3,Phases=3,Linecode=CAB609_3_3,Length=0.009437000,Units=km
new line.TR12548194 bus1=BMT169508464.1.2.3,bus2=BMT169508465.1.2.3,Phases=3,Linecode=CAB609_3_3,Length=0.009437000,Units=km
new line.TR12548218 bus1=BMT2726354B.1.2.3,bus2=BMT168401199.1.2.3,Phases=3,Linecode=CABA08_3_3,Length=0.035009000,Units=km
new line.TR12548219 bus1=BMT168401199.1.2.3,bus2=BMT168401200.1.2.3,Phases=3,Linecode=CABA08_3_3,Length=0.016036000,Units=km
new line.TR12548224 bus1=BMT9157253C.1.2.3,bus2=BMT9157252C.1.2.3,Phases=3,Linecode=CAB609_3_3,Length=0.018873000,Units=km
new line.TR12548235 bus1=BMT9157252C.1.2.3,bus2=BMT9157229C.1.2.3,Phases=3,Linecode=CAB609_3_3,Length=0.080798000,Units=km
new line.TR12548236 bus1=BMT9157229C.1.2.3,bus2=BMT9157258C.1.2.3,Phases=3,Linecode=CAB609_3_3,Length=0.008488000,Units=km
new line.TR12548505 bus1=BMT9101983C.1.2.3,bus2=BMT8731902C.1.2.3,Phases=3,Linecode=CAB611_3_3,Length=0.024214000,Units=km
new line.TR12548552 bus1=BMT168400661.1.2.3,bus2=BMT9130488C.1.2.3,Phases=3,Linecode=CAB611_3_3,Length=0.058067000,Units=km
new line.TR12548553 bus1=BMT9130488C.1.2.3,bus2=BMT9101983C.1.2.3,Phases=3,Linecode=CAB611_3_3,Length=0.017725000,Units=km
new line.TR12548589 bus1=BMT168400665.1.2.3,bus2=BMT2409086B.1.2.3,Phases=3,Linecode=CAB108_3_3,Length=0.030274000,Units=km
new line.TR12550871 bus1=BMT9157581B.1.2.3,bus2=BMT9159965B.1.2.3,Phases=3,Linecode=CAB611_5_3,Length=0.095450000,Units=km
new line.TR12550893 bus1=BMT9159965B.1.2.3,bus2=BMT9160000B.1.2.3,Phases=3,Linecode=CAB611_5_3,Length=0.144664000,Units=km
new line.TR12550899 bus1=BMT9160000B.1.2.3,bus2=BMT9160001B.1.2.3,Phases=3,Linecode=CAB611_5_3,Length=0.022029000,Units=km
new line.TR12550915 bus1=BMT9160001B.1.2.3,bus2=BMT172553781.1.2.3,Phases=3,Linecode=CAB611_5_3,Length=0.081709000,Units=km
new line.TR12551159 bus1=BMT172553781.1.2.3,bus2=BMT164613596.1.2.3,Phases=3,Linecode=CAB611_5_3,Length=0.016036000,Units=km
new line.TR12551233 bus1=BMT172553780.1.2.3,bus2=BMT172553779.1.2.3,Phases=3,Linecode=CAB611_5_3,Length=0.004474000,Units=km
new line.TR12551234 bus1=BMT172553779.1.2.3,bus2=BMT172553778.1.2.3,Phases=3,Linecode=CABA08_5_3,Length=0.002237000,Units=km
new line.TR12551239 bus1=BMT8731902C.1.2.3,bus2=BMT168400662.1.2.3,Phases=3,Linecode=CAB611_3_3,Length=0.062498000,Units=km
new line.TR12551240 bus1=BMT168400662.1.2.3,bus2=BMT168400663.1.2.3,Phases=3,Linecode=CAB611_3_3,Length=0.005833000,Units=km
new line.TR12551241 bus1=BMT168400663.1.2.3,bus2=BMT168400664.1.2.3,Phases=3,Linecode=CABA08_3_3,Length=0.003001000,Units=km
new line.TR12551244 bus1=BMT172553780.1.2.3,bus2=BMT8905077B.1.2.3,Phases=3,Linecode=CAB611_5_3,Length=0.011317000,Units=km
new line.TR12551245 bus1=BMT8905077B.1.2.3,bus2=BMT9157581B.1.2.3,Phases=3,Linecode=CAB611_5_3,Length=0.025619000,Units=km
new line.TR12660158 bus1=BMT168400651.1.2.3,bus2=BMT170222930.1.2.3,Phases=3,Linecode=CAB608_3_3,Length=0.024048000,Units=km
new line.TR12662323 bus1=BMT170222931.1.2.3,bus2=BMT170222932.1.2.3,Phases=3,Linecode=CAB608_3_3,Length=0.046413000,Units=km
new line.TR12662325 bus1=BMT170222933.1.2.3,bus2=BMT2409058C.1.2.3,Phases=3,Linecode=CABA08_3_3,Length=0.019110000,Units=km
new line.TR12662339 bus1=BMT2409058C.1.2.3,bus2=BMT6191747C.1.2.3,Phases=3,Linecode=CABA08_3_3,Length=0.011317000,Units=km
new line.TR12662345 bus1=BMT6191747C.1.2.3,bus2=BMT2379966C.1.2.3,Phases=3,Linecode=CABA08_3_3,Length=0.014146000,Units=km
new line.TR12662362 bus1=BMT2379966C.1.2.3,bus2=BMT2379973B.1.2.3,Phases=3,Linecode=CABA08_3_3,Length=0.009003000,Units=km
new line.TR12662364 bus1=BMT2379973B.1.2.3,bus2=BMT2409065C.1.2.3,Phases=3,Linecode=CABA08_3_3,Length=0.026915000,Units=km
new line.TR12662384 bus1=BMT2409065C.1.2.3,bus2=BMT2705130C.1.2.3,Phases=3,Linecode=CABA08_3_3,Length=0.034722000,Units=km
new line.TR12662393 bus1=BMT2705130C.1.2.3,bus2=BMT168400658.1.2.3,Phases=3,Linecode=CABA08_3_3,Length=0.031836000,Units=km
new line.TR12694674 bus1=BMT169508461.1.2.3,bus2=BMT169508462.1.2.3,Phases=3,Linecode=CABA06_3_3,Length=0.001415000,Units=km
new line.TR12694675 bus1=BMT169508462.1.2.3,bus2=BMT169508463.1.2.3,Phases=3,Linecode=CAB609_3_3,Length=0.006405000,Units=km
new line.TR12694679 bus1=BMT169508463.1.2.3,bus2=BMT9157253C.1.2.3,Phases=3,Linecode=CAB609_3_3,Length=0.032658000,Units=km
new line.TR3479316 bus1=BMT1975142B.1.2.3,bus2=BMT168400807.1.2.3,Phases=3,Linecode=CABA08_3_3,Length=0.024420000,Units=km
new line.TR3484804 bus1=BMT168400704.1.2.3,bus2=BMT168400705.1.2.3,Phases=3,Linecode=CAB108_3_3,Length=0.034375000,Units=km
new line.TR3484811 bus1=BMT168400704.1.2.3,bus2=BMT2724415B.1.2.3,Phases=3,Linecode=CAB108_3_3,Length=0.037957000,Units=km
new line.TR3561335 bus1=BMT168400904.1.2.3,bus2=BMT168400905.1.2.3,Phases=3,Linecode=CABA06_3_3,Length=0.037010000,Units=km
new line.TR3566851 bus1=BMT168401118.1.2.3,bus2=BMT168401119.1.2.3,Phases=3,Linecode=CAB103_3_3,Length=0.036134000,Units=km
new line.TR10960776 bus1=BMT168400847.1.2.3,bus2=BMT168400849.1.2.3,Phases=3,Linecode=CABA08_3_3,Length=0.035393000,Units=km
new line.TR10960811 bus1=BMT168400849.1.2.3,bus2=BMT168400850.1.2.3,Phases=3,Linecode=CABA08_3_3,Length=0.032659000,Units=km
new line.TR11696665 bus1=BMT168401186.1.2.3,bus2=BMT168401185.1.2.3,Phases=3,Linecode=CABA08_3_3,Length=0.041351000,Units=km
new line.TR11696707 bus1=BMT168401185.1.2.3,bus2=BMT2724058B.1.2.3,Phases=3,Linecode=CAB907_4_3,Length=0.034009000,Units=km
new line.TR11696714 bus1=BMT2724058B.1.2.3,bus2=BMT2724065B.1.2.3,Phases=3,Linecode=CAB907_4_3,Length=0.035478000,Units=km
new line.TR11696721 bus1=BMT2724065B.1.2.3,bus2=BMT2729042B.1.2.3,Phases=3,Linecode=CAB907_4_3,Length=0.033625000,Units=km
new line.TR11696728 bus1=BMT2729042B.1.2.3,bus2=BMT2729049B.1.2.3,Phases=3,Linecode=CAB907_4_3,Length=0.033625000,Units=km
new line.TR11696735 bus1=BMT2729049B.1.2.3,bus2=BMT2696198B.1.2.3,Phases=3,Linecode=CAB907_4_3,Length=0.035856000,Units=km
new line.TR11697127 bus1=BMT168401184.1.2.3,bus2=BMT168401167.1.2.3,Phases=3,Linecode=CABA08_3_3,Length=0.038637000,Units=km
new line.TR11697134 bus1=BMT168401166.1.2.3,bus2=BMT168401165.1.2.3,Phases=3,Linecode=CABA08_3_3,Length=0.040508000,Units=km
new line.TR11697141 bus1=BMT168401165.1.2.3,bus2=BMT168400681.1.2.3,Phases=3,Linecode=CABA08_3_3,Length=0.028643000,Units=km
new line.TR11697211 bus1=BMT168400677.1.2.3,bus2=BMT168400680.1.2.3,Phases=3,Linecode=CAB108_3_3,Length=0.030008000,Units=km
new line.TR11697575 bus1=BMT2696198B.1.2.3,bus2=BMT168401184.1.2.3,Phases=3,Linecode=CAB907_4_3,Length=0.035856000,Units=km
new line.TR11708999 bus1=BMT168401186.1.2.3,bus2=BMT168401187.1.2.3,Phases=3,Linecode=CABA08_3_3,Length=0.043151000,Units=km
new line.TR11711267 bus1=BMT168401163.1.2.3,bus2=BMT3382835B.1.2.3,Phases=3,Linecode=CABA06_3_3,Length=0.018033000,Units=km
new line.TR11711274 bus1=BMT3382835B.1.2.3,bus2=BMT7895092B.1.2.3,Phases=3,Linecode=CABA06_3_3,Length=0.018033000,Units=km
new line.TR11711281 bus1=BMT7895092B.1.2.3,bus2=BMT2703905B.1.2.3,Phases=3,Linecode=CABA06_3_3,Length=0.009437000,Units=km
new line.TR11711288 bus1=BMT2703905B.1.2.3,bus2=BMT2703912B.1.2.3,Phases=3,Linecode=CABA06_3_3,Length=0.038338000,Units=km
new line.TR11711295 bus1=BMT2703912B.1.2.3,bus2=BMT2703919B.1.2.3,Phases=3,Linecode=CABA06_3_3,Length=0.040458000,Units=km
new line.TR11711302 bus1=BMT2703919B.1.2.3,bus2=BMT2703926B.1.2.3,Phases=3,Linecode=CABA06_3_3,Length=0.036065000,Units=km
new line.TR11711309 bus1=BMT2703926B.1.2.3,bus2=BMT2704598B.1.2.3,Phases=3,Linecode=CABA06_3_3,Length=0.038089000,Units=km
new line.TR11711316 bus1=BMT2704598B.1.2.3,bus2=BMT168401164.1.2.3,Phases=3,Linecode=CABA06_3_3,Length=0.035912000,Units=km
new line.TR11711435 bus1=BMT168401136.1.2.3,bus2=BMT168401138.1.2.3,Phases=3,Linecode=CABA08_3_3,Length=0.022810000,Units=km
new line.TR11711463 bus1=BMT169508429.1.2.3,bus2=BMT169508430.1.2.3,Phases=3,Linecode=CABA08_3_3,Length=0.027666000,Units=km
new line.TR12441391 bus1=BMT2704409B.1.2.3,bus2=BMT172232795.1.2.3,Phases=3,Linecode=CABA08_3_3,Length=0.014426000,Units=km
new line.TR12441392 bus1=BMT172232795.1.2.3,bus2=BMT172232796.1.2.3,Phases=3,Linecode=CABA08_3_3,Length=0.017210000,Units=km
new line.TR12441393 bus1=BMT172232795.1.2.3,bus2=BMT2704073B.1.2.3,Phases=3,Linecode=CABA06_3_3,Length=0.042449000,Units=km
new line.TR12441396 bus1=BMT2704073B.1.2.3,bus2=BMT2704066B.1.2.3,Phases=3,Linecode=CABA06_3_3,Length=0.033250000,Units=km
new line.TR12441400 bus1=BMT2704066B.1.2.3,bus2=BMT172232797.1.2.3,Phases=3,Linecode=CABA06_3_3,Length=0.031265000,Units=km
new line.TR12442253 bus1=BMT168400665.1.2.3,bus2=BMT168400666.1.2.3,Phases=3,Linecode=CABA08_3_3,Length=0.016497000,Units=km
new line.TR12442256 bus1=BMT168400666.1.2.3,bus2=BMT2060808B.1.2.3,Phases=3,Linecode=CABA08_3_3,Length=0.017268000,Units=km
new line.TR12481274 bus1=BMT168401054.1.2.3,bus2=BMT168401055.1.2.3,Phases=3,Linecode=CAB902_4_3,Length=0.025639000,Units=km
new line.TR12520762 bus1=BMT168400837.1.2.3,bus2=BMT168400839.1.2.3,Phases=3,Linecode=CABA08_3_3,Length=0.033550000,Units=km
new line.TR12520763 bus1=BMT2672832B.1.2.3,bus2=BMT2672839B.1.2.3,Phases=3,Linecode=CABA08_3_3,Length=0.027811000,Units=km
new line.TR12520767 bus1=BMT168400842.1.2.3,bus2=BMT2672839B.1.2.3,Phases=3,Linecode=CABA08_3_3,Length=0.018390000,Units=km
new line.TR12757218 bus1=BMT171648421.1.2.3,bus2=BMT171648422.1.2.3,Phases=3,Linecode=CABA08_3_3,Length=0.028327000,Units=km
new line.TR3420677 bus1=BMT168400814.1.2.3,bus2=BMT2668905B.1.2.3,Phases=3,Linecode=CAB103_3_3,Length=0.037212000,Units=km
new line.TR3420796 bus1=BMT1952280B.1.2.3,bus2=BMT2973412.1.2.3,Phases=3,Linecode=CAB108_3_3,Length=0.029077000,Units=km
new line.TR3420817 bus1=BMT168401108.1.2.3,bus2=BMT1952280B.1.2.3,Phases=3,Linecode=CAB108_3_3,Length=0.031409000,Units=km
new line.TR3486183 bus1=BMT172539902.1.2.3,bus2=BMT2727670B.1.2.3,Phases=3,Linecode=CAB103_3_3,Length=0.048931000,Units=km
new line.TR3541343 bus1=BMT168400925.1.2.3,bus2=BMT168400926.1.2.3,Phases=3,Linecode=CAB103_3_3,Length=0.034535000,Units=km
new line.TR3656087 bus1=BMT168401072.1.2.3,bus2=BMT2682009B.1.2.3,Phases=3,Linecode=CAB103_3_3,Length=0.022567000,Units=km
new line.TR3656094 bus1=BMT168401072.1.2.3,bus2=BMT2682072B.1.2.3,Phases=3,Linecode=CAB103_3_3,Length=0.033386000,Units=km
new line.TR3662492 bus1=BMT168401066.1.2.3,bus2=BMT2677480B.1.2.3,Phases=3,Linecode=CAB103_3_3,Length=0.026313000,Units=km
new line.TR3794120 bus1=BMT168401089.1.2.3,bus2=BMT2670732B.1.2.3,Phases=3,Linecode=CABA06_3_3,Length=0.032320000,Units=km
new line.TR4782877 bus1=BMT2381401B.1.2.3,bus2=BMT168400958.1.2.3,Phases=3,Linecode=CAB103_3_3,Length=0.032009000,Units=km
new line.TR4782884 bus1=BMT2381401B.1.2.3,bus2=BMT168400957.1.2.3,Phases=3,Linecode=CAB103_3_3,Length=0.030158000,Units=km
new line.TR4782919 bus1=BMT2381408B.1.2.3,bus2=BMT2706817B.1.2.3,Phases=3,Linecode=CABA08_3_3,Length=0.023093000,Units=km
new line.TR4782954 bus1=BMT2381415B.1.2.3,bus2=BMT168400949.1.2.3,Phases=3,Linecode=CABA08_3_3,Length=0.033024000,Units=km
new line.TR4782975 bus1=BMT168400945.1.2.3,bus2=BMT2381436B.1.2.3,Phases=3,Linecode=CABA08_3_3,Length=0.035024000,Units=km
new line.TR4782982 bus1=BMT168400945.1.2.3,bus2=BMT168400950.1.2.3,Phases=3,Linecode=CABA08_3_3,Length=0.007073000,Units=km
new line.TR4782996 bus1=BMT2381429B.1.2.3,bus2=BMT168400959.1.2.3,Phases=3,Linecode=CABA08_3_3,Length=0.032659000,Units=km
new line.TR4783024 bus1=BMT2381436B.1.2.3,bus2=BMT168400944.1.2.3,Phases=3,Linecode=CABA08_3_3,Length=0.039023000,Units=km
new line.TR4783045 bus1=BMT168400944.1.2.3,bus2=BMT168400943.1.2.3,Phases=3,Linecode=CABA08_3_3,Length=0.035024000,Units=km
new line.TR4783052 bus1=BMT168400944.1.2.3,bus2=BMT168400946.1.2.3,Phases=3,Linecode=CABA08_3_3,Length=0.019241000,Units=km
new line.TR4783101 bus1=BMT2381457B.1.2.3,bus2=BMT169627447.1.2.3,Phases=3,Linecode=CABA08_3_3,Length=0.031409000,Units=km
new line.TR4783108 bus1=BMT2381457B.1.2.3,bus2=BMT169627446.1.2.3,Phases=3,Linecode=CABA08_3_3,Length=0.039823000,Units=km
new line.TR4783136 bus1=BMT169627446.1.2.3,bus2=BMT2702078B.1.2.3,Phases=3,Linecode=CABA08_3_3,Length=0.030091000,Units=km
new line.TR4784109 bus1=BMT169627960.1.2.3,bus2=BMT2704479B.1.2.3,Phases=3,Linecode=CAB103_3_3,Length=0.022854000,Units=km
new line.TR4784116 bus1=BMT169627960.1.2.3,bus2=BMT169627959.1.2.3,Phases=3,Linecode=CABA08_3_3,Length=0.033610000,Units=km
new line.TR4784137 bus1=BMT168401043.1.2.3,bus2=BMT168401044.1.2.3,Phases=3,Linecode=CAB103_3_3,Length=0.039304000,Units=km
new line.TR4784144 bus1=BMT168401037.1.2.3,bus2=BMT2704479B.1.2.3,Phases=3,Linecode=CAB103_3_3,Length=0.022567000,Units=km
new line.TR4785761 bus1=BMT170022357.1.2.3,bus2=BMT170022356.1.2.3,Phases=3,Linecode=CABA08_3_3,Length=0.032211000,Units=km
new line.TR4785768 bus1=BMT170022357.1.2.3,bus2=BMT170022358.1.2.3,Phases=3,Linecode=CABA08_3_3,Length=0.039228000,Units=km
new line.TR4785775 bus1=BMT170022357.1.2.3,bus2=BMT2382178B.1.2.3,Phases=3,Linecode=CABA08_3_3,Length=0.028852000,Units=km
new line.TR4785782 bus1=BMT170022357.1.2.3,bus2=BMT170022360.1.2.3,Phases=3,Linecode=CABA08_3_3,Length=0.036410000,Units=km
new line.TR4785817 bus1=BMT2382178B.1.2.3,bus2=BMT170022359.1.2.3,Phases=3,Linecode=CABA08_3_3,Length=0.028186000,Units=km
new line.TR4785845 bus1=BMT170022355.1.2.3,bus2=BMT168400994.1.2.3,Phases=3,Linecode=CAB103_3_3,Length=0.000501000,Units=km
new line.TR4785852 bus1=BMT170022355.1.2.3,bus2=BMT170022354.1.2.3,Phases=3,Linecode=CABA08_3_3,Length=0.046078000,Units=km
new line.TR4785859 bus1=BMT168401021.1.2.3,bus2=BMT2382199B.1.2.3,Phases=3,Linecode=CABA06_3_3,Length=0.016768000,Units=km
new line.TR4785894 bus1=BMT170022354.1.2.3,bus2=BMT168400992.1.2.3,Phases=3,Linecode=CAB103_3_3,Length=0.000501000,Units=km
new line.TR4785901 bus1=BMT170022354.1.2.3,bus2=BMT168400975.1.2.3,Phases=3,Linecode=CABA08_3_3,Length=0.031314000,Units=km
new line.TR4785908 bus1=BMT168401031.1.2.3,bus2=BMT168401032.1.2.3,Phases=3,Linecode=CAB103_3_3,Length=0.018606000,Units=km
new line.TR4785922 bus1=BMT2382199B.1.2.3,bus2=BMT168401022.1.2.3,Phases=3,Linecode=CABA06_3_3,Length=0.040061000,Units=km
new line.TR4785971 bus1=BMT168401022.1.2.3,bus2=BMT168401023.1.2.3,Phases=3,Linecode=CABA06_3_3,Length=0.035024000,Units=km
new line.TR4785978 bus1=BMT168401029.1.2.3,bus2=BMT168401030.1.2.3,Phases=3,Linecode=CAB902_4_3,Length=0.022478000,Units=km
new line.TR4786006 bus1=BMT168401023.1.2.3,bus2=BMT2692082B.1.2.3,Phases=3,Linecode=CABA06_3_3,Length=0.038063000,Units=km
new line.TR4786020 bus1=BMT2382220B.1.2.3,bus2=BMT168401024.1.2.3,Phases=3,Linecode=CABA06_3_3,Length=0.025027000,Units=km
new line.TR4786034 bus1=BMT2382227B.1.2.3,bus2=BMT2382234B.1.2.3,Phases=3,Linecode=CABA06_3_3,Length=0.025087000,Units=km
new line.TR4786062 bus1=BMT2382234B.1.2.3,bus2=BMT2692404B.1.2.3,Phases=3,Linecode=CABA06_3_3,Length=0.037587000,Units=km
new line.TR4786090 bus1=BMT168401026.1.2.3,bus2=BMT168401027.1.2.3,Phases=3,Linecode=CABA06_3_3,Length=0.017005000,Units=km
new line.TR4786118 bus1=BMT168401027.1.2.3,bus2=BMT2382255B.1.2.3,Phases=3,Linecode=CAB103_3_3,Length=0.038637000,Units=km
new line.TR4786146 bus1=BMT2382255B.1.2.3,bus2=BMT2692481B.1.2.3,Phases=3,Linecode=CAB103_3_3,Length=0.028186000,Units=km
new line.TR4786188 bus1=BMT2382262B.1.2.3,bus2=BMT168401028.1.2.3,Phases=3,Linecode=CAB103_3_3,Length=0.018687000,Units=km
new line.TR4786223 bus1=BMT168400974.1.2.3,bus2=BMT168400973.1.2.3,Phases=3,Linecode=CABA08_3_3,Length=0.038959000,Units=km
new line.TR4786244 bus1=BMT168401032.1.2.3,bus2=BMT168401033.1.2.3,Phases=3,Linecode=CAB103_3_3,Length=0.027026000,Units=km
new line.TR4786251 bus1=BMT168401032.1.2.3,bus2=BMT2382290B.1.2.3,Phases=3,Linecode=CAB103_3_3,Length=0.024604000,Units=km
new line.TR4786286 bus1=BMT2382290B.1.2.3,bus2=BMT2684004B.1.2.3,Phases=3,Linecode=CAB103_3_3,Length=0.027081000,Units=km
new line.TR4786314 bus1=BMT168400973.1.2.3,bus2=BMT168400976.1.2.3,Phases=3,Linecode=CABA06_3_3,Length=0.034068000,Units=km
new line.TR4786321 bus1=BMT168400973.1.2.3,bus2=BMT168400972.1.2.3,Phases=3,Linecode=CABA08_3_3,Length=0.033550000,Units=km
new line.TR4786328 bus1=BMT168400973.1.2.3,bus2=BMT168400977.1.2.3,Phases=3,Linecode=CABA06_3_3,Length=0.034024000,Units=km
new line.TR4786349 bus1=BMT168400967.1.2.3,bus2=BMT168400966.1.2.3,Phases=3,Linecode=CABA08_3_3,Length=0.037131000,Units=km
...
