2024_89_CemigReconfigurationCases/1_AlimsCemig/BHPM25/BHPM25ChavesMT.dss
new line.CTR249726 bus1=BMT168400820.1.2.3,bus2=BMT168400822.1.2.3,Phases=3,LineCode=tieSwitch,Length=0.001,Units=km,switch=T !numEQ 290353
new line.CTR249901 bus1=BMT168400687.1.2.3,bus2=BMT168400688.1.2.3,Phases=3,LineCode=tieSwitch,Length=0.001,Units=km,switch=T !numEQ 4223
new line.CTR309737 bus1=BMT168400755.1.2.3,bus2=BMT168400757.1.2.3,Phases=3,LineCode=tieSwitch,Length=0.001,Units=km,switch=T !numEQ 148955
new line.CTR887241 bus1=BMT168400845.1.2.3,bus2=BMT168400846.1.2.3,Phases=3,LineCode=tieSwitch,Length=0.001,Units=km,switch=T !numEQ 263728
new line.CTR888073 bus1=BMT168401196.1.2.3,bus2=BMT168401197.1.2.3,Phases=3,LineCode=tieSwitch,Length=0.001,Units=km,switch=T !numEQ 263440
new line.CTR888267 bus1=BMT168400848.1.2.3,bus2=BMT168631170.1.2.3,Phases=3,LineCode=tieSwitch,Length=0.001,Units=km,switch=T !numEQ 263444
new line.CTR888959 bus1=BMT168400839.1.2.3,bus2=BMT168400840.1.2.3,Phases=3,LineCode=tieSwitch,Length=0.001,Units=km,switch=T !numEQ 263446
new line.CTR268262 bus1=BMT168400947.1.2.3,bus2=BMT169628002.1.2.3,Phases=3,LineCode=tieSwitch,Length=0.001,Units=km,switch=T !numEQ 243784
new line.CTR334958 bus1=BMT169627965.1.2.3,bus2=BMT102728362.1.2.3,Phases=3,LineCode=tieSwitch,Length=0.001,Units=km,switch=T !numEQ 143079
open line.CTR334958 term=1
new line.CTR367655 bus1=BMT168400921.1.2.3,bus2=BMT168400922.1.2.3,Phases=3,LineCode=tieSwitch,Length=0.001,Units=km,switch=T !numEQ 142598
new line.CTR367669 bus1=BMT168400933.1.2.3,bus2=BMT168400937.1.2.3,Phases=3,LineCode=tieSwitch,Length=0.001,Units=km,switch=T !numEQ 130123
new line.CTR367683 bus1=BMT168400920.1.2.3,bus2=BMT168400923.1.2.3,Phases=3,LineCode=tieSwitch,Length=0.001,Units=km,switch=T !numEQ 130124
new line.CTR367697 bus1=BMT168400919.1.2.3,bus2=BMT168401059.1.2.3,Phases=3,LineCode=tieSwitch,Length=0.001,Units=km,switch=T !numEQ 130132
new line.CTR367711 bus1=BMT168400899.1.2.3,bus2=BMT168400900.1.2.3,Phases=3,LineCode=tieSwitch,Length=0.001,Units=km,switch=T !numEQ 131368
new line.CTR48833 bus1=BMT169627445.1.2.3,bus2=BMT168400932.1.2.3,Phases=3,LineCode=tieSwitch,Length=0.001,Units=km,switch=T !numEQ 112545
new line.CTR85989 bus1=BMT168400977.1.2.3,bus2=BMT168400978.1.2.3,Phases=3,LineCode=tieSwitch,Length=0.001,Units=km,switch=T !numEQ 2907
new line.CTR889404 bus1=BMT168400827.1.2.3,bus2=BMT162799728.1.2.3,Phases=3,LineCode=tieSwitch,Length=0.001,Units=km,switch=T !numEQ 402401
open line.CTR889404 term=1
new line.CTR889436 bus1=BMT168400788.1.2.3,bus2=BMT168400803.1.2.3,Phases=3,LineCode=tieSwitch,Length=0.001,Units=km,switch=T !numEQ 263452
new line.CTR890602 bus1=BMT168400831.1.2.3,bus2=BMT168400832.1.2.3,Phases=3,LineCode=tieSwitch,Length=0.001,Units=km,switch=T !numEQ 263447
new line.CTR890607 bus1=BMT168400821.1.2.3,bus2=BMT168400829.1.2.3,Phases=3,LineCode=tieSwitch,Length=0.001,Units=km,switch=T !numEQ 263449
new line.CTR905426 bus1=BMT170222932.1.2.3,bus2=BMT170222933.1.2.3,Phases=3,LineCode=tieSwitch,Length=0.001,Units=km,switch=T !numEQ 402505
new line.CTR905867 bus1=BMT168631172.1.2.3,bus2=BMT170697640.1.2.3,Phases=3,LineCode=tieSwitch,Length=0.001,Units=km,switch=T !numEQ 273572
new line.CTR209889 bus1=BMT168401144.1.2.3,bus2=BMT168401145.1.2.3,Phases=3,LineCode=tieSwitch,Length=0.001,Units=km,switch=T !numEQ 4150
new line.CTR253856 bus1=BMT168401153.1.2.3,bus2=BMT168401161.1.2.3,Phases=3,LineCode=tieSwitch,Length=0.001,Units=km,switch=T !numEQ 106272
new line.CTR305250 bus1=BMT168401037.1.2.3,bus2=BMT168401043.1.2.3,Phases=3,LineCode=tieSwitch,Length=0.001,Units=km,switch=T !numEQ 243785
new line.CTR305306 bus1=BMT168400967.1.2.3,bus2=BMT168400972.1.2.3,Phases=3,LineCode=tieSwitch,Length=0.001,Units=km,switch=T !numEQ 142602
new line.CTR305334 bus1=BMT168400992.1.2.3,bus2=BMT168401031.1.2.3,Phases=3,LineCode=tieSwitch,Length=0.001,Units=km,switch=T !numEQ 4728
new line.CTR305481 bus1=BMT168400950.1.2.3,bus2=BMT168400959.1.2.3,Phases=3,LineCode=tieSwitch,Length=0.001,Units=km,switch=T !numEQ 6393
new line.CTR305838 bus1=BMT168400883.1.2.3,bus2=BMT168400894.1.2.3,Phases=3,LineCode=tieSwitch,Length=0.001,Units=km,switch=T !numEQ 130126
new line.CTR305985 bus1=BMT168400974.1.2.3,bus2=BMT168400975.1.2.3,Phases=3,LineCode=tieSwitch,Length=0.001,Units=km,switch=T !numEQ 14031
new line.CTR357330 bus1=BMT168400686.1.2.3,bus2=BMT168401109.1.2.3,Phases=3,LineCode=tieSwitch,Length=0.001,Units=km,switch=T !numEQ 6705
new line.CTR549249 bus1=BMT168400879.1.2.3,bus2=BMT168401065.1.2.3,Phases=3,LineCode=tieSwitch,Length=0.001,Units=km,switch=T !numEQ 5877
new line.CTR622980 bus1=BMT168400735.1.2.3,bus2=BMT168400736.1.2.3,Phases=3,LineCode=tieSwitch,Length=0.001,Units=km,switch=T !numEQ 12101
new line.CTR76406 bus1=BMT168400994.1.2.3,bus2=BMT168401021.1.2.3,Phases=3,LineCode=tieSwitch,Length=0.001,Units=km,switch=T !numEQ 200174
new line.CTR882266 bus1=BMT168400666.1.2.3,bus2=BMT172553778.1.2.3,Phases=3,LineCode=tieSwitch,Length=0.001,Units=km,switch=T !numEQ 139497
open line.CTR882266 term=1
new line.CTR893031 bus1=BMT168400680.1.2.3,bus2=BMT168400681.1.2.3,Phases=3,LineCode=tieSwitch,Length=0.001,Units=km,switch=T !numEQ 402561
new line.CTR893040 bus1=BMT172232796.1.2.3,bus2=BMT168401152.1.2.3,Phases=3,LineCode=tieSwitch,Length=0.001,Units=km,switch=T !numEQ 402559
open line.CTR893040 term=1
new line.CTR893041 bus1=BMT168401168.1.2.3,bus2=BMT168401169.1.2.3,Phases=3,LineCode=tieSwitch,Length=0.001,Units=km,switch=T !numEQ 402558
new line.CTR893043 bus1=BMT172232689.1.2.3,bus2=BMT172232760.1.2.3,Phases=3,LineCode=tieSwitch,Length=0.001,Units=km,switch=T !numEQ 402557
open line.CTR893043 term=1
new line.CTR893046 bus1=BMT172232761.1.2.3,bus2=BMT172232762.1.2.3,Phases=3,LineCode=tieSwitch,Length=0.001,Units=km,switch=T !numEQ 265216
open line.CTR893046 term=1
new line.CTR893048 bus1=BMT172232794.1.2.3,bus2=BMT172232789.1.2.3,Phases=3,LineCode=tieSwitch,Length=0.001,Units=km,switch=T !numEQ 402556
open line.CTR893048 term=1
new line.CTR893535 bus1=BMT168400902.1.2.3,bus2=BMT168400908.1.2.3,Phases=3,LineCode=tieSwitch,Length=0.001,Units=km,switch=T !numEQ 260020
new line.CTR893537 bus1=BMT168400901.1.2.3,bus2=BMT168400903.1.2.3,Phases=3,LineCode=tieSwitch,Length=0.001,Units=km,switch=T !numEQ 260019
new line.CTR893925 bus1=BMT168401200.1.2.3,bus2=BMT168400738.1.2.3,Phases=3,LineCode=tieSwitch,Length=0.001,Units=km,switch=T !numEQ 263439
open line.CTR893925 term=1
new line.CTRR37080 bus1=BMT168400743.1.2.3,bus2=BMT2788122.1.2.3,Phases=3,LineCode=tieSwitch,Length=0.001,Units=km,switch=T !numEQ 239244
open line.CTRR37080 term=1
new line.CTR119253 bus1=BMT168401123.1.2.3,bus2=BMT168401128.1.2.3,Phases=3,LineCode=tieSwitch,Length=0.001,Units=km,switch=T !numEQ 128172
new line.CTR133785 bus1=BMT168400872.1.2.3,bus2=BMT168401077.1.2.3,Phases=3,LineCode=tieSwitch,Length=0.001,Units=km,switch=T !numEQ 202195
new line.CTR846595 bus1=BMT168401140.1.2.3,bus2=BMT168401141.1.2.3,Phases=3,LineCode=tieSwitch,Length=0.001,Units=km,switch=T !numEQ 374247
new line.CTR877651 bus1=BMT168401050.1.2.3,bus2=BMT168401051.1.2.3,Phases=3,LineCode=tieSwitch,Length=0.001,Units=km,switch=T !numEQ 243153
new line.CTRR36680 bus1=BMT168400759.1.2.3,bus2=BMT168400761.1.2.3,Phases=3,LineCode=tieSwitch,Length=0.001,Units=km,switch=T !numEQ 239241
new line.CTR189666 bus1=BMT170022358.1.2.3,bus2=BMT5205103.1.2.3,Phases=3,LineCode=tieSwitch,Length=0.001,Units=km,switch=T !numEQ 302029
open line.CTR189666 term=1
new line.CTR231491 bus1=BMT168400726.1.2.3,bus2=BMT168400727.1.2.3,Phases=3,LineCode=tieSwitch,Length=0.001,Units=km,switch=T !numEQ 5838
new line.CTR316303 bus1=BMT168400693.1.2.3,bus2=BMT168400695.1.2.3,Phases=3,LineCode=tieSwitch,Length=0.001,Units=km,switch=T !numEQ 177866
new line.CTR316345 bus1=BMT168400725.1.2.3,bus2=BMT168400728.1.2.3,Phases=3,LineCode=tieSwitch,Length=0.001,Units=km,switch=T !numEQ 5440
new line.CTR354670 bus1=BMT168400951.1.2.3,bus2=BMT168400952.1.2.3,Phases=3,LineCode=tieSwitch,Length=0.001,Units=km,switch=T !numEQ 130128
new line.CTR885483 bus1=BMT168400898.1.2.3,bus2=BMT168401063.1.2.3,Phases=3,LineCode=tieSwitch,Length=0.001,Units=km,switch=T !numEQ 239994
new line.CTR885969 bus1=BMT168401193.1.2.3,bus2=BMT162231161.1.2.3,Phases=3,LineCode=tieSwitch,Length=0.001,Units=km,switch=T !numEQ 263442
open line.CTR885969 term=1
new line.CTR886468 bus1=BMT168401047.1.2.3,bus2=BMT168401054.1.2.3,Phases=3,LineCode=tieSwitch,Length=0.001,Units=km,switch=T !numEQ 254478
new line.CTR887097 bus1=BMT168400864.1.2.3,bus2=BMT168400865.1.2.3,Phases=3,LineCode=tieSwitch,Length=0.001,Units=km,switch=T !numEQ 263437
open line.CTR887097 term=1
new line.CTR887099 bus1=BMT168400756.1.2.3,bus2=BMT168400862.1.2.3,Phases=3,LineCode=tieSwitch,Length=0.001,Units=km,switch=T !numEQ 263436
new line.CTR887110 bus1=BMT168400754.1.2.3,bus2=BMT162589355.1.2.3,Phases=3,LineCode=tieSwitch,Length=0.001,Units=km,switch=T !numEQ 263435
open line.CTR887110 term=1
new line.CTR887111 bus1=BMT168400745.1.2.3,bus2=BMT168400746.1.2.3,Phases=3,LineCode=tieSwitch,Length=0.001,Units=km,switch=T !numEQ 263724
new line.CTR887115 bus1=BMT168400750.1.2.3,bus2=BMT168400751.1.2.3,Phases=3,LineCode=tieSwitch,Length=0.001,Units=km,switch=T !numEQ 263273
new line.CTRR24382 bus1=BMT168400748.1.2.3,bus2=BMT168400749.1.2.3,Phases=3,LineCode=tieSwitch,Length=0.001,Units=km,switch=T !numEQ 220182
new line.CTR368607 bus1=BMT168400870.1.2.3,bus2=BMT168401074.1.2.3,Phases=3,LineCode=tieSwitch,Length=0.001,Units=km,switch=T !numEQ 130130
new line.CTR368635 bus1=BMT168400866.1.2.3,bus2=BMT168400867.1.2.3,Phases=3,LineCode=tieSwitch,Length=0.001,Units=km,switch=T !numEQ 130131
new line.CTR368649 bus1=BMT168400875.1.2.3,bus2=BMT170025410.1.2.3,Phases=3,LineCode=tieSwitch,Length=0.001,Units=km,switch=T !numEQ 130127
new line.CTR504680 bus1=BMT168400671.1.2.3,bus2=BMT168401203.1.2.3,Phases=3,LineCode=tieSwitch,Length=0.001,Units=km,switch=T !numEQ 196980
new line.CTR67019 bus1=BMT168400732.1.2.3,bus2=BMT168401098.1.2.3,Phases=3,LineCode=tieSwitch,Length=0.001,Units=km,switch=T !numEQ 5891
new line.CTR670426 bus1=BMT168400869.1.2.3,bus2=BMT168401071.1.2.3,Phases=3,LineCode=tieSwitch,Length=0.001,Units=km,switch=T !numEQ 149954
new line.CTR67103 bus1=BMT168400760.1.2.3,bus2=BMT168400858.1.2.3,Phases=3,LineCode=tieSwitch,Length=0.001,Units=km,switch=T !numEQ 239243
new line.CTR794403 bus1=BMT168401190.1.2.3,bus2=BMT168400716.1.2.3,Phases=3,LineCode=tieSwitch,Length=0.001,Units=km,switch=T !numEQ 212421
open line.CTR794403 term=1
new line.CTR796594 bus1=BMT168401195.1.2.3,bus2=BMT162232438.1.2.3,Phases=3,LineCode=tieSwitch,Length=0.001,Units=km,switch=T !numEQ 212417
open line.CTR796594 term=1
new line.CTR798533 bus1=BMT168400679.1.2.3,bus2=BMT168401133.1.2.3,Phases=3,LineCode=tieSwitch,Length=0.001,Units=km,switch=T !numEQ 212464
new line.CTR798540 bus1=BMT168401187.1.2.3,bus2=BMT168401188.1.2.3,Phases=3,LineCode=tieSwitch,Length=0.001,Units=km,switch=T !numEQ 212619
new line.CTR800339 bus1=BMT168400678.1.2.3,bus2=BMT168400682.1.2.3,Phases=3,LineCode=tieSwitch,Length=0.001,Units=km,switch=T !numEQ 292711
new line.CTR800360 bus1=BMT168400672.1.2.3,bus2=BMT168400673.1.2.3,Phases=3,LineCode=tieSwitch,Length=0.001,Units=km,switch=T !numEQ 212616
new line.CTR801746 bus1=BMT168401135.1.2.3,bus2=BMT168401163.1.2.3,Phases=3,LineCode=tieSwitch,Length=0.001,Units=km,switch=T !numEQ 292768
new line.CTR801760 bus1=BMT168401138.1.2.3,bus2=BMT169508429.1.2.3,Phases=3,LineCode=tieSwitch,Length=0.001,Units=km,switch=T !numEQ 212618
new line.CTR852544 bus1=BMT168401166.1.2.3,bus2=BMT168401167.1.2.3,Phases=3,LineCode=tieSwitch,Length=0.001,Units=km,switch=T !numEQ 139402
new line.CTR884397 bus1=BMT168400758.1.2.3,bus2=BMT168400860.1.2.3,Phases=3,LineCode=tieSwitch,Length=0.001,Units=km,switch=T !numEQ 239242
new line.CTR914779 bus1=BMT171648393.1.2.3,bus2=BMT171648420.1.2.3,Phases=3,LineCode=tieSwitch,Length=0.001,Units=km,switch=T !numEQ 319757
new line.CTR175085 bus1=BMT168400733.1.2.3,bus2=BMT168401086.1.2.3,Phases=3,LineCode=tieSwitch,Length=0.001,Units=km,switch=T !numEQ 5441
new line.CTR207915 bus1=BMT168400674.1.2.3,bus2=BMT168400675.1.2.3,Phases=3,LineCode=tieSwitch,Length=0.001,Units=km,switch=T !numEQ 292712
new line.CTR259442 bus1=BMT168400882.1.2.3,bus2=BMT168400884.1.2.3,Phases=3,LineCode=tieSwitch,Length=0.001,Units=km,switch=T !numEQ 309905
new line.CTR259456 bus1=BMT168400905.1.2.3,bus2=BMT168400906.1.2.3,Phases=3,LineCode=tieSwitch,Length=0.001,Units=km,switch=T !numEQ 309955
new line.CTR32187 bus1=BMT168400985.1.2.3,bus2=BMT168400986.1.2.3,Phases=3,LineCode=tieSwitch,Length=0.001,Units=km,switch=T !numEQ 130158
new line.CTR537895 bus1=BMT168401088.1.2.3,bus2=BMT168436984.1.2.3,Phases=3,LineCode=tieSwitch,Length=0.001,Units=km,switch=T !numEQ 2833
new line.CTR777918 bus1=BMT168401110.1.2.3,bus2=BMT168401114.1.2.3,Phases=3,LineCode=tieSwitch,Length=0.001,Units=km,switch=T !numEQ 292636
new line.CTR777960 bus1=BMT168400810.1.2.3,bus2=BMT168400818.1.2.3,Phases=3,LineCode=tieSwitch,Length=0.001,Units=km,switch=T !numEQ 292871
new line.CTR785310 bus1=BMT168400691.1.2.3,bus2=BMT168401103.1.2.3,Phases=3,LineCode=tieSwitch,Length=0.001,Units=km,switch=T !numEQ 299380
new line.CTR785324 bus1=BMT168400694.1.2.3,bus2=BMT168400701.1.2.3,Phases=3,LineCode=tieSwitch,Length=0.001,Units=km,switch=T !numEQ 299381
new line.CTR847361 bus1=BMT168400664.1.2.3,bus2=BMT168400665.1.2.3,Phases=3,LineCode=tieSwitch,Length=0.001,Units=km,switch=T !numEQ 374255
new line.CTR847362 bus1=BMT168400658.1.2.3,bus2=BMT168400659.1.2.3,Phases=3,LineCode=tieSwitch,Length=0.001,Units=km,switch=T !numEQ 311456
new line.CTR87879 bus1=BMT168400873.1.2.3,bus2=BMT168400874.1.2.3,Phases=3,LineCode=tieSwitch,Length=0.001,Units=km,switch=T !numEQ 5875
new line.CTR896020 bus1=BMT168400739.1.2.3,bus2=BMT168400740.1.2.3,Phases=3,LineCode=tieSwitch,Length=0.001,Units=km,switch=T !numEQ 263438
new line.CTRR39175 bus1=BMT168400784.1.2.3,bus2=BMT168400785.1.2.3,Phases=3,LineCode=tieSwitch,Length=0.001,Units=km,switch=T !numEQ 239239
new line.CTRR40320 bus1=BMT169627447.1.2.3,bus2=BMT168400936.1.2.3,Phases=3,LineCode=tieSwitch,Length=0.001,Units=km,switch=T !numEQ 273132
new line.CTRR40444 bus1=BMT168400910.1.2.3,bus2=BMT168406017.1.2.3,Phases=3,LineCode=tieSwitch,Length=0.001,Units=km,switch=T !numEQ 197011
new line.CTR304305 bus1=BMT168400766.1.2.3,bus2=BMT168400767.1.2.3,Phases=3,LineCode=tieSwitch,Length=0.001,Units=km,switch=T !numEQ 101058
new line.CTR507942 bus1=BMT168401198.1.2.3,bus2=BMT168401201.1.2.3,Phases=3,LineCode=tieSwitch,Length=0.001,Units=km,switch=T !numEQ 151491
new line.CTR569206 bus1=BMT168400703.1.2.3,bus2=BMT172539901.1.2.3,Phases=3,LineCode=tieSwitch,Length=0.001,Units=km,switch=T !numEQ 1358
new line.CTR569234 bus1=BMT168400705.1.2.3,bus2=BMT168400712.1.2.3,Phases=3,LineCode=tieSwitch,Length=0.001,Units=km,switch=T !numEQ 5837
new line.CTR569290 bus1=BMT168400718.1.2.3,bus2=BMT168400719.1.2.3,Phases=3,LineCode=tieSwitch,Length=0.001,Units=km,switch=T !numEQ 1359
new line.CTR67880 bus1=BMT168401000.1.2.3,bus2=BMT170022136.1.2.3,Phases=3,LineCode=tieSwitch,Length=0.001,Units=km,switch=T !numEQ 199821
new line.CTR8079 bus1=BMT168401022.1.2.3,bus2=BMT168401029.1.2.3,Phases=3,LineCode=tieSwitch,Length=0.001,Units=km,switch=T !numEQ 200204
new line.CTR866362 bus1=BMT168400698.1.2.3,bus2=BMT168400699.1.2.3,Phases=3,LineCode=tieSwitch,Length=0.001,Units=km,switch=T !numEQ 177865
new line.CTR880439 bus1=BMT169508433.1.2.3,bus2=BMT169508461.1.2.3,Phases=3,LineCode=tieSwitch,Length=0.001,Units=km,switch=T !numEQ 251519
new line.CTR896909 bus1=BMT168401007.1.2.3,bus2=BMT171648383.1.2.3,Phases=3,LineCode=tieSwitch,Length=0.001,Units=km,switch=T !numEQ 267528
new line.CTR897091 bus1=BMT168400808.1.2.3,bus2=BMT168400813.1.2.3,Phases=3,LineCode=tieSwitch,Length=0.001,Units=km,switch=T !numEQ 263450
new line.CTR897097 bus1=BMT168400806.1.2.3,bus2=BMT168400811.1.2.3,Phases=3,LineCode=tieSwitch,Length=0.001,Units=km,switch=T !numEQ 263451
new line.CTR897101 bus1=BMT168400787.1.2.3,bus2=BMT172219979.1.2.3,Phases=3,LineCode=tieSwitch,Length=0.001,Units=km,switch=T !numEQ 263453
new line.CTR897119 bus1=BMT168400765.1.2.3,bus2=BMT168400768.1.2.3,Phases=3,LineCode=tieSwitch,Length=0.001,Units=km,switch=T !numEQ 239240
new line.CTR897125 bus1=BMT168400685.1.2.3,bus2=BMT168401116.1.2.3,Phases=3,LineCode=tieSwitch,Length=0.001,Units=km,switch=T !numEQ 239245
new line.CTRR41115 bus1=BMT168400956.1.2.3,bus2=BMT2993474.1.2.3,Phases=3,LineCode=tieSwitch,Length=0.001,Units=km,switch=T !numEQ 273133
open line.CTRR41115 term=1
new line.CTRR41117 bus1=BMT169319960.1.2.3,bus2=BMT169627959.1.2.3,Phases=3,LineCode=tieSwitch,Length=0.001,Units=km,switch=T !numEQ 267541
