2024_89_CemigReconfigurationCases/1_AlimsCemig/BHPM25/BHPM25Transformadores.dss
new transformer.1338346 Phases=3,Windings=2,Buses=[BMT168401048.1.2.3 BBT107047957.1.2.3.0],Conns=[delta wye],kvs=[13.8 0.22],kvas=[45.000000000 45.000000000],Taps=[1,1.000000000],XHL=3.636000000,%loadloss=1.522000000,%noloadloss=0.377777000
new transformer.1488476 Phases=1,Windings=3,Buses=[BMT169627448.1 BBT169627449.1.0 BBT169627449.0.2],Conns=[wye wye wye],kvs=[7.967 0.12 0.12],kvas=[10.000000000 10.000000000 10.000000000],Taps=[1,1.000000000,1.000000000],XHL=1.877000000,XHT=1.877000000,XLT=1.252000000,%loadloss=1.800000000,%noloadloss=0.450000000
new transformer.272651 Phases=3,Windings=2,Buses=[BMT168400844.1.2.3 BBT2127931.1.2.3.0],Conns=[delta wye],kvs=[13.8 0.22],kvas=[75.000000000 75.000000000],Taps=[1,1.000000000],XHL=3.721000000,%loadloss=1.340000000,%noloadloss=0.340000000
new transformer.304424 Phases=3,Windings=2,Buses=[BMT172219984.1.2.3 BBT2323462.1.2.3.0],Conns=[delta wye],kvs=[13.8 0.22],kvas=[45.000000000 45.000000000],Taps=[1,1.000000000],XHL=3.636000000,%loadloss=1.522000000,%noloadloss=0.377777000
new transformer.304557 Phases=3,Windings=2,Buses=[BMT168400943.1.2.3 BBT2324351.1.2.3.0],Conns=[delta wye],kvs=[13.8 0.22],kvas=[100.000000000 100.000000000],Taps=[1,1.000000000],XHL=3.771000000,%loadloss=1.218000000,%noloadloss=0.335000000
new transformer.304599 Phases=3,Windings=2,Buses=[BMT168400949.1.2.3 BBT2324617.1.2.3.0],Conns=[delta wye],kvs=[13.8 0.22],kvas=[250.000000000 250.000000000],Taps=[1,1.000000000],XHL=4.881000000,%loadloss=0.990000000,%noloadloss=0.280000000
new transformer.304753 Phases=3,Windings=2,Buses=[BMT168400953.1.2.3 BBT2325240.1.2.3.0],Conns=[delta wye],kvs=[13.8 0.22],kvas=[75.000000000 75.000000000],Taps=[1,1.000000000],XHL=3.721000000,%loadloss=1.340000000,%noloadloss=0.340000000
new transformer.304837 Phases=3,Windings=2,Buses=[BMT168400722.1.2.3 BBT2325618.1.2.3.0],Conns=[delta wye],kvs=[13.8 0.22],kvas=[100.000000000 100.000000000],Taps=[1,1.000000000],XHL=3.771000000,%loadloss=1.218000000,%noloadloss=0.335000000
new transformer.304886 Phases=3,Windings=2,Buses=[BMT168400826.1.2.3 BBT2325961.1.2.3.0],Conns=[delta wye],kvs=[13.8 0.22],kvas=[100.000000000 100.000000000],Taps=[1,1.000000000],XHL=3.771000000,%loadloss=1.218000000,%noloadloss=0.335000000
new transformer.304956 Phases=3,Windings=2,Buses=[BMT168400958.1.2.3 BBT2326304.1.2.3.0],Conns=[delta wye],kvs=[13.8 0.22],kvas=[100.000000000 100.000000000],Taps=[1,1.000000000],XHL=3.771000000,%loadloss=1.218000000,%noloadloss=0.335000000
new transformer.305096 Phases=3,Windings=2,Buses=[BMT172219989.1.2.3 BBT2327095.1.2.3.0],Conns=[delta wye],kvs=[13.8 0.22],kvas=[75.000000000 75.000000000],Taps=[1,1.000000000],XHL=3.721000000,%loadloss=1.340000000,%noloadloss=0.340000000
new transformer.309891 Phases=3,Windings=2,Buses=[BMT168400690.1.2.3 BBT2358112.1.2.3.0],Conns=[delta wye],kvs=[13.8 0.22],kvas=[100.000000000 100.000000000],Taps=[1,1.000000000],XHL=3.771000000,%loadloss=1.218000000,%noloadloss=0.335000000
new transformer.310010 Phases=3,Windings=2,Buses=[BMT168401058.1.2.3 BBT2358847.1.2.3.0],Conns=[delta wye],kvs=[13.8 0.22],kvas=[75.000000000 75.000000000],Taps=[1,1.000000000],XHL=3.721000000,%loadloss=1.340000000,%noloadloss=0.340000000
new transformer.310178 Phases=3,Windings=2,Buses=[BMT168400917.1.2.3 BBT2359820.1.2.3.0],Conns=[delta wye],kvs=[13.8 0.22],kvas=[150.000000000 150.000000000],Taps=[1,1.000000000],XHL=3.805000000,%loadloss=1.127000000,%noloadloss=0.280000000
new transformer.310339 Phases=3,Windings=2,Buses=[BMT168400939.1.2.3 BBT2361017.1.2.3.0],Conns=[delta wye],kvs=[13.8 0.22],kvas=[100.000000000 100.000000000],Taps=[1,1.000000000],XHL=3.771000000,%loadloss=1.218000000,%noloadloss=0.335000000
new transformer.310388 Phases=3,Windings=2,Buses=[BMT168400982.1.2.3 BBT2361241.1.2.3.0],Conns=[delta wye],kvs=[13.8 0.22],kvas=[75.000000000 75.000000000],Taps=[1,1.000000000],XHL=3.721000000,%loadloss=1.340000000,%noloadloss=0.340000000
new transformer.310472 Phases=3,Windings=2,Buses=[BMT168400928.1.2.3 BBT2361710.1.2.3.0],Conns=[delta wye],kvs=[13.8 0.22],kvas=[100.000000000 100.000000000],Taps=[1,1.000000000],XHL=3.771000000,%loadloss=1.218000000,%noloadloss=0.335000000
new transformer.315792 Phases=3,Windings=2,Buses=[BMT168400762.1.2.3 BBT2393707.1.2.3.0],Conns=[delta wye],kvs=[13.8 0.22],kvas=[150.000000000 150.000000000],Taps=[1,1.000000000],XHL=3.805000000,%loadloss=1.127000000,%noloadloss=0.280000000
new transformer.315799 Phases=3,Windings=2,Buses=[BMT170022141.1.2.3 BBT2393735.1.2.3.0],Conns=[delta wye],kvs=[13.8 0.22],kvas=[45.000000000 45.000000000],Taps=[1,1.000000000],XHL=3.636000000,%loadloss=1.522000000,%noloadloss=0.377777000
new transformer.315876 Phases=3,Windings=2,Buses=[BMT169508434.1.2.3 BBT2394218.1.2.3.0],Conns=[delta wye],kvs=[13.8 0.22],kvas=[45.000000000 45.000000000],Taps=[1,1.000000000],XHL=3.636000000,%loadloss=1.522000000,%noloadloss=0.377777000
new transformer.315960 Phases=3,Windings=2,Buses=[BMT168400892.1.2.3 BBT2394610.1.2.3.0],Conns=[delta wye],kvs=[13.8 0.22],kvas=[45.000000000 45.000000000],Taps=[1,1.000000000],XHL=3.636000000,%loadloss=1.522000000,%noloadloss=0.377777000
new transformer.316072 Phases=3,Windings=2,Buses=[BMT170025413.1.2.3 BBT2395464.1.2.3.0],Conns=[delta wye],kvs=[13.8 0.22],kvas=[75.000000000 75.000000000],Taps=[1,1.000000000],XHL=3.721000000,%loadloss=1.340000000,%noloadloss=0.340000000
new transformer.318802 Phases=3,Windings=2,Buses=[BMT168401075.1.2.3 BBT2412089.1.2.3.0],Conns=[delta wye],kvs=[13.8 0.22],kvas=[100.000000000 100.000000000],Taps=[1,1.000000000],XHL=3.771000000,%loadloss=1.218000000,%noloadloss=0.335000000
new transformer.318823 Phases=3,Windings=2,Buses=[BMT168401143.1.2.3 BBT2412201.1.2.3.0],Conns=[delta wye],kvs=[13.8 0.22],kvas=[45.000000000 45.000000000],Taps=[1,1.000000000],XHL=3.636000000,%loadloss=1.522000000,%noloadloss=0.377777000
new transformer.322393 Phases=3,Windings=2,Buses=[BMT168401091.1.2.3 BBT2435679.1.2.3.0],Conns=[delta wye],kvs=[13.8 0.22],kvas=[75.000000000 75.000000000],Taps=[1,1.000000000],XHL=3.721000000,%loadloss=1.340000000,%noloadloss=0.340000000
new transformer.322540 Phases=3,Windings=2,Buses=[BMT168400863.1.2.3 BBT2436561.1.2.3.0],Conns=[delta wye],kvs=[13.8 0.22],kvas=[75.000000000 75.000000000],Taps=[1,1.000000000],XHL=3.721000000,%loadloss=1.340000000,%noloadloss=0.340000000
new transformer.325739 Phases=3,Windings=2,Buses=[BMT168436985.1.2.3 BBT2458597.1.2.3.0],Conns=[delta wye],kvs=[13.8 0.22],kvas=[45.000000000 45.000000000],Taps=[1,1.000000000],XHL=3.636000000,%loadloss=1.522000000,%noloadloss=0.377777000
new transformer.325872 Phases=3,Windings=2,Buses=[BMT168436986.1.2.3 BBT2459535.1.2.3.0],Conns=[delta wye],kvs=[13.8 0.22],kvas=[75.000000000 75.000000000],Taps=[1,1.000000000],XHL=3.721000000,%loadloss=1.340000000,%noloadloss=0.340000000
new transformer.378477 Phases=3,Windings=2,Buses=[BMT168400897.1.2.3 BBT3348948.1.2.3.0],Conns=[delta wye],kvs=[13.8 0.22],kvas=[45.000000000 45.000000000],Taps=[1,1.000000000],XHL=3.636000000,%loadloss=1.522000000,%noloadloss=0.377777000
new transformer.1498318 Phases=3,Windings=2,Buses=[BMT171648422.1.2.3 BBT171648423.1.2.3.0],Conns=[delta wye],kvs=[13.8 0.22],kvas=[75.000000000 75.000000000],Taps=[1,1.000000000],XHL=3.721000000,%loadloss=1.340000000,%noloadloss=0.340000000
new transformer.295499 Phases=3,Windings=2,Buses=[BMT168400843.1.2.3 BBT2266461.1.2.3.0],Conns=[delta wye],kvs=[13.8 0.22],kvas=[75.000000000 75.000000000],Taps=[1,1.000000000],XHL=3.721000000,%loadloss=1.340000000,%noloadloss=0.340000000
new transformer.303892 Phases=3,Windings=2,Buses=[BMT172219987.1.2.3 BBT2320473.1.2.3.0],Conns=[delta wye],kvs=[13.8 0.22],kvas=[75.000000000 75.000000000],Taps=[1,1.000000000],XHL=3.721000000,%loadloss=1.340000000,%noloadloss=0.340000000
new transformer.303976 Phases=3,Windings=2,Buses=[BMT168400721.1.2.3 BBT2320844.1.2.3.0],Conns=[delta wye],kvs=[13.8 0.22],kvas=[100.000000000 100.000000000],Taps=[1,1.000000000],XHL=3.771000000,%loadloss=1.218000000,%noloadloss=0.335000000
new transformer.304095 Phases=3,Windings=2,Buses=[BMT168400824.1.2.3 BBT2321306.1.2.3.0],Conns=[delta wye],kvs=[13.8 0.22],kvas=[75.000000000 75.000000000],Taps=[1,1.000000000],XHL=3.721000000,%loadloss=1.340000000,%noloadloss=0.340000000
new transformer.308540 Phases=3,Windings=2,Buses=[BMT168400804.1.2.3 BBT2350132.1.2.3.0],Conns=[delta wye],kvs=[13.8 0.22],kvas=[75.000000000 75.000000000],Taps=[1,1.000000000],XHL=3.721000000,%loadloss=1.340000000,%noloadloss=0.340000000
new transformer.308582 Phases=3,Windings=2,Buses=[BMT172219981.1.2.3 BBT2350377.1.2.3.0],Conns=[delta wye],kvs=[13.8 0.22],kvas=[100.000000000 100.000000000],Taps=[1,1.000000000],XHL=3.771000000,%loadloss=1.218000000,%noloadloss=0.335000000
new transformer.308827 Phases=3,Windings=2,Buses=[BMT168401057.1.2.3 BBT2351777.1.2.3.0],Conns=[delta wye],kvs=[13.8 0.22],kvas=[150.000000000 150.000000000],Taps=[1,1.000000000],XHL=3.805000000,%loadloss=1.127000000,%noloadloss=0.280000000
new transformer.308988 Phases=3,Windings=2,Buses=[BMT168400942.1.2.3 BBT2352589.1.2.3.0],Conns=[delta wye],kvs=[13.8 0.22],kvas=[75.000000000 75.000000000],Taps=[1,1.000000000],XHL=3.721000000,%loadloss=1.340000000,%noloadloss=0.340000000
new transformer.309037 Phases=3,Windings=2,Buses=[BMT168400717.1.2.3 BBT2352869.1.2.3.0],Conns=[delta wye],kvs=[13.8 0.22],kvas=[45.000000000 45.000000000],Taps=[1,1.000000000],XHL=3.636000000,%loadloss=1.522000000,%noloadloss=0.377777000
new transformer.309065 Phases=1,Windings=3,Buses=[BMT168401113.1 BBT2353030.1.0 BBT2353030.0.2],Conns=[wye wye wye],kvs=[7.967 0.12 0.12],kvas=[35.000000000 35.000000000 35.000000000],Taps=[1,1.000000000,1.000000000],XHL=2.475000000,XHT=2.475000000,XLT=1.650000000,%loadloss=1.293000000,%noloadloss=0.342857000
new transformer.314147 Phases=3,Windings=2,Buses=[BMT168400889.1.2.3 BBT2383172.1.2.3.0],Conns=[delta wye],kvs=[13.8 0.22],kvas=[75.000000000 75.000000000],Taps=[1,1.000000000],XHL=3.721000000,%loadloss=1.340000000,%noloadloss=0.340000000
new transformer.314175 Phases=3,Windings=2,Buses=[BMT171648388.1.2.3 BBT2383249.1.2.3.0],Conns=[delta wye],kvs=[13.8 0.22],kvas=[75.000000000 75.000000000],Taps=[1,1.000000000],XHL=3.721000000,%loadloss=1.340000000,%noloadloss=0.340000000
new transformer.314182 Phases=3,Windings=2,Buses=[BMT168400772.1.2.3 BBT2383263.1.2.3.0],Conns=[delta wye],kvs=[13.8 0.22],kvas=[75.000000000 75.000000000],Taps=[1,1.000000000],XHL=3.721000000,%loadloss=1.340000000,%noloadloss=0.340000000
new transformer.314210 Phases=3,Windings=2,Buses=[BMT170022356.1.2.3 BBT2383557.1.2.3.0],Conns=[delta wye],kvs=[13.8 0.22],kvas=[75.000000000 75.000000000],Taps=[1,1.000000000],XHL=3.721000000,%loadloss=1.340000000,%noloadloss=0.340000000
new transformer.314273 Phases=3,Windings=2,Buses=[BMT168401117.1.2.3 BBT2383760.1.2.3.0],Conns=[delta wye],kvs=[13.8 0.22],kvas=[30.000000000 30.000000000],Taps=[1,1.000000000],XHL=3.564000000,%loadloss=1.667000000,%noloadloss=0.433333000
new transformer.314371 Phases=3,Windings=2,Buses=[BMT170022142.1.2.3 BBT2384229.1.2.3.0],Conns=[delta wye],kvs=[13.8 0.22],kvas=[75.000000000 75.000000000],Taps=[1,1.000000000],XHL=3.721000000,%loadloss=1.340000000,%noloadloss=0.340000000
new transformer.314385 Phases=3,Windings=2,Buses=[BMT168401068.1.2.3 BBT2384250.1.2.3.0],Conns=[delta wye],kvs=[13.8 0.22],kvas=[75.000000000 75.000000000],Taps=[1,1.000000000],XHL=3.721000000,%loadloss=1.340000000,%noloadloss=0.340000000
new transformer.314406 Phases=3,Windings=2,Buses=[BMT171648385.1.2.3 BBT2384488.1.2.3.0],Conns=[delta wye],kvs=[13.8 0.22],kvas=[75.000000000 75.000000000],Taps=[1,1.000000000],XHL=3.721000000,%loadloss=1.340000000,%noloadloss=0.340000000
new transformer.314420 Phases=3,Windings=2,Buses=[BMT171648421.1.2.3 BBT2384565.1.2.3.0],Conns=[delta wye],kvs=[13.8 0.22],kvas=[45.000000000 45.000000000],Taps=[1,1.000000000],XHL=3.636000000,%loadloss=1.522000000,%noloadloss=0.377777000
new transformer.314441 Phases=3,Windings=2,Buses=[BMT170022137.1.2.3 BBT2384789.1.2.3.0],Conns=[delta wye],kvs=[13.8 0.22],kvas=[75.000000000 75.000000000],Taps=[1,1.000000000],XHL=3.721000000,%loadloss=1.340000000,%noloadloss=0.340000000
new transformer.314546 Phases=3,Windings=2,Buses=[BMT168401126.1.2.3 BBT2385265.1.2.3.0],Conns=[delta wye],kvs=[13.8 0.22],kvas=[75.000000000 75.000000000],Taps=[1,1.000000000],XHL=3.721000000,%loadloss=1.340000000,%noloadloss=0.340000000
new transformer.314602 Phases=3,Windings=2,Buses=[BMT169508431.1.2.3 BBT2385706.1.2.3.0],Conns=[delta wye],kvs=[13.8 0.22],kvas=[75.000000000 75.000000000],Taps=[1,1.000000000],XHL=3.721000000,%loadloss=1.340000000,%noloadloss=0.340000000
new transformer.324346 Phases=3,Windings=2,Buses=[BMT168401089.1.2.3 BBT2448489.1.2.3.0],Conns=[delta wye],kvs=[13.8 0.22],kvas=[75.000000000 75.000000000],Taps=[1,1.000000000],XHL=3.721000000,%loadloss=1.340000000,%noloadloss=0.340000000
new transformer.324570 Phases=3,Windings=2,Buses=[BMT168436989.1.2.3 BBT2449651.1.2.3.0],Conns=[delta wye],kvs=[13.8 0.22],kvas=[45.000000000 45.000000000],Taps=[1,1.000000000],XHL=3.636000000,%loadloss=1.522000000,%noloadloss=0.377777000
new transformer.324885 Phases=3,Windings=2,Buses=[BMT172553958.1.2.3 BBT2452059.1.2.3.0],Conns=[delta wye],kvs=[13.8 0.22],kvas=[150.000000000 150.000000000],Taps=[1,1.000000000],XHL=3.805000000,%loadloss=1.127000000,%noloadloss=0.280000000
new transformer.324962 Phases=3,Windings=2,Buses=[BMT168401099.1.2.3 BBT2452549.1.2.3.0],Conns=[delta wye],kvs=[13.8 0.22],kvas=[45.000000000 45.000000000],Taps=[1,1.000000000],XHL=3.636000000,%loadloss=1.522000000,%noloadloss=0.377777000
new transformer.378379 Phases=3,Windings=2,Buses=[BMT168400948.1.2.3 BBT3347821.1.2.3.0],Conns=[delta wye],kvs=[13.8 0.22],kvas=[150.000000000 150.000000000],Taps=[1,1.000000000],XHL=3.805000000,%loadloss=1.127000000,%noloadloss=0.280000000
new transformer.378407 Phases=3,Windings=2,Buses=[BMT168401061.1.2.3 BBT3348157.1.2.3.0],Conns=[delta wye],kvs=[13.8 0.22],kvas=[150.000000000 150.000000000],Taps=[1,1.000000000],XHL=3.805000000,%loadloss=1.127000000,%noloadloss=0.280000000
new transformer.378414 Phases=3,Windings=2,Buses=[BMT168401062.1.2.3 BBT3348227.1.2.3.0],Conns=[delta wye],kvs=[13.8 0.22],kvas=[150.000000000 150.000000000],Taps=[1,1.000000000],XHL=3.805000000,%loadloss=1.127000000,%noloadloss=0.280000000
new transformer.1354271 Phases=3,Windings=2,Buses=[BMT172539905.1.2.3 BBT118702411.1.2.3.0],Conns=[delta wye],kvs=[13.8 0.22],kvas=[75.000000000 75.000000000],Taps=[1,1.000000000],XHL=3.721000000,%loadloss=1.340000000,%noloadloss=0.340000000
new transformer.1442748 Phases=3,Windings=2,Buses=[BMT172232797.1.2.3 BBT159720787.1.2.3.0],Conns=[delta wye],kvs=[13.8 0.22],kvas=[150.000000000 150.000000000],Taps=[1,1.000000000],XHL=3.805000000,%loadloss=1.127000000,%noloadloss=0.280000000
new transformer.1461286 Phases=3,Windings=2,Buses=[BMT168400836.1.2.3 BBT164609878.1.2.3.0],Conns=[delta wye],kvs=[13.8 0.22],kvas=[75.000000000 75.000000000],Taps=[1,1.000000000],XHL=3.721000000,%loadloss=1.340000000,%noloadloss=0.340000000
new transformer.1478527 Phases=3,Windings=2,Buses=[BMT168406022.1.2.3 BBT167866542.1.2.3.0],Conns=[delta wye],kvs=[13.8 0.22],kvas=[150.000000000 150.000000000],Taps=[1,1.000000000],XHL=3.805000000,%loadloss=1.127000000,%noloadloss=0.280000000
new transformer.1478528 Phases=3,Windings=2,Buses=[BMT168406021.1.2.3 BBT167866648.1.2.3.0],Conns=[delta wye],kvs=[13.8 0.22],kvas=[250.000000000 250.000000000],Taps=[1,1.000000000],XHL=4.881000000,%loadloss=0.990000000,%noloadloss=0.280000000
new transformer.1478529 Phases=3,Windings=2,Buses=[BMT168406019.1.2.3 BBT167866767.1.2.3.0],Conns=[delta wye],kvs=[13.8 0.22],kvas=[150.000000000 150.000000000],Taps=[1,1.000000000],XHL=3.805000000,%loadloss=1.127000000,%noloadloss=0.280000000
new transformer.1478531 Phases=3,Windings=2,Buses=[BMT168406018.1.2.3 BBT167866932.1.2.3.0],Conns=[delta wye],kvs=[13.8 0.22],kvas=[150.000000000 150.000000000],Taps=[1,1.000000000],XHL=3.805000000,%loadloss=1.127000000,%noloadloss=0.280000000
new transformer.297844 Phases=1,Windings=3,Buses=[BMT168400851.1 BBT2280678.1.0 BBT2280678.0.2],Conns=[wye wye wye],kvs=[7.967 0.12 0.12],kvas=[35.000000000 35.000000000 35.000000000],Taps=[1,1.000000000,1.000000000],XHL=2.475000000,XHT=2.475000000,XLT=1.650000000,%loadloss=1.293000000,%noloadloss=0.342857000
new transformer.302499 Phases=3,Windings=2,Buses=[BMT172539906.1.2.3 BBT2312150.1.2.3.0],Conns=[delta wye],kvs=[13.8 0.22],kvas=[75.000000000 75.000000000],Taps=[1,1.000000000],XHL=3.721000000,%loadloss=1.340000000,%noloadloss=0.340000000
new transformer.302954 Phases=3,Windings=2,Buses=[BMT168400731.1.2.3 BBT2314544.1.2.3.0],Conns=[delta wye],kvs=[13.8 0.22],kvas=[100.000000000 100.000000000],Taps=[1,1.000000000],XHL=3.771000000,%loadloss=1.218000000,%noloadloss=0.335000000
new transformer.303003 Phases=3,Windings=2,Buses=[BMT168400814.1.2.3 BBT2314726.1.2.3.0],Conns=[delta wye],kvs=[13.8 0.22],kvas=[150.000000000 150.000000000],Taps=[1,1.000000000],XHL=3.805000000,%loadloss=1.127000000,%noloadloss=0.280000000
new transformer.303045 Phases=3,Windings=2,Buses=[BMT168401108.1.2.3 BBT2314803.1.2.3.0],Conns=[delta wye],kvs=[13.8 0.22],kvas=[75.000000000 75.000000000],Taps=[1,1.000000000],XHL=3.721000000,%loadloss=1.340000000,%noloadloss=0.340000000
new transformer.307861 Phases=3,Windings=2,Buses=[BMT168400941.1.2.3 BBT2345673.1.2.3.0],Conns=[delta wye],kvs=[13.8 0.22],kvas=[75.000000000 75.000000000],Taps=[1,1.000000000],XHL=3.721000000,%loadloss=1.340000000,%noloadloss=0.340000000
new transformer.307882 Phases=3,Windings=2,Buses=[BMT168400704.1.2.3 BBT2345715.1.2.3.0],Conns=[delta wye],kvs=[13.8 0.22],kvas=[75.000000000 75.000000000],Taps=[1,1.000000000],XHL=3.721000000,%loadloss=1.340000000,%noloadloss=0.340000000
new transformer.307889 Phases=3,Windings=2,Buses=[BMT168400970.1.2.3 BBT2345729.1.2.3.0],Conns=[delta wye],kvs=[13.8 0.22],kvas=[75.000000000 75.000000000],Taps=[1,1.000000000],XHL=3.721000000,%loadloss=1.340000000,%noloadloss=0.340000000
new transformer.308008 Phases=3,Windings=2,Buses=[BMT172539902.1.2.3 BBT2346338.1.2.3.0],Conns=[delta wye],kvs=[13.8 0.22],kvas=[100.000000000 100.000000000],Taps=[1,1.000000000],XHL=3.771000000,%loadloss=1.218000000,%noloadloss=0.335000000
new transformer.308113 Phases=3,Windings=2,Buses=[BMT168400969.1.2.3 BBT2346940.1.2.3.0],Conns=[delta wye],kvs=[13.8 0.22],kvas=[75.000000000 75.000000000],Taps=[1,1.000000000],XHL=3.721000000,%loadloss=1.340000000,%noloadloss=0.340000000
new transformer.308484 Phases=3,Windings=2,Buses=[BMT168401112.1.2.3 BBT2349754.1.2.3.0],Conns=[delta wye],kvs=[13.8 0.22],kvas=[45.000000000 45.000000000],Taps=[1,1.000000000],XHL=3.636000000,%loadloss=1.522000000,%noloadloss=0.377777000
new transformer.313447 Phases=1,Windings=3,Buses=[BMT168401132.2 BBT2379000.1.0 BBT2379000.0.2],Conns=[wye wye wye],kvs=[7.967 0.12 0.12],kvas=[35.000000000 35.000000000 35.000000000],Taps=[1,1.000000000,1.000000000],XHL=2.475000000,XHT=2.475000000,XLT=1.650000000,%loadloss=1.293000000,%noloadloss=0.342857000
new transformer.313671 Phases=3,Windings=2,Buses=[BMT172232793.1.2.3 BBT2380512.1.2.3.0],Conns=[delta wye],kvs=[13.8 0.22],kvas=[45.000000000 45.000000000],Taps=[1,1.000000000],XHL=3.636000000,%loadloss=1.522000000,%noloadloss=0.377777000
new transformer.313720 Phases=3,Windings=2,Buses=[BMT168400890.1.2.3 BBT2380673.1.2.3.0],Conns=[delta wye],kvs=[13.8 0.22],kvas=[75.000000000 75.000000000],Taps=[1,1.000000000],XHL=3.721000000,%loadloss=1.340000000,%noloadloss=0.340000000
new transformer.313755 Phases=3,Windings=2,Buses=[BMT168401146.1.2.3 BBT2381023.1.2.3.0],Conns=[delta wye],kvs=[13.8 0.22],kvas=[75.000000000 75.000000000],Taps=[1,1.000000000],XHL=3.721000000,%loadloss=1.340000000,%noloadloss=0.340000000
new transformer.313986 Phases=3,Windings=2,Buses=[BMT168401070.1.2.3 BBT2382479.1.2.3.0],Conns=[delta wye],kvs=[13.8 0.22],kvas=[75.000000000 75.000000000],Taps=[1,1.000000000],XHL=3.721000000,%loadloss=1.340000000,%noloadloss=0.340000000
new transformer.316856 Phases=3,Windings=2,Buses=[BMT168400891.1.2.3 BBT2400098.1.2.3.0],Conns=[delta wye],kvs=[13.8 0.22],kvas=[75.000000000 75.000000000],Taps=[1,1.000000000],XHL=3.721000000,%loadloss=1.340000000,%noloadloss=0.340000000
new transformer.316877 Phases=3,Windings=2,Buses=[BMT168401081.1.2.3 BBT2400280.1.2.3.0],Conns=[delta wye],kvs=[13.8 0.22],kvas=[45.000000000 45.000000000],Taps=[1,1.000000000],XHL=3.636000000,%loadloss=1.522000000,%noloadloss=0.377777000
new transformer.317199 Phases=3,Windings=2,Buses=[BMT168401072.1.2.3 BBT2402457.1.2.3.0],Conns=[delta wye],kvs=[13.8 0.22],kvas=[225.000000000 225.000000000],Taps=[1,1.000000000],XHL=4.864000000,%loadloss=1.060000000,%noloadloss=0.248888000
new transformer.317262 Phases=3,Windings=2,Buses=[BMT168401139.1.2.3 BBT2402968.1.2.3.0],Conns=[delta wye],kvs=[13.8 0.22],kvas=[150.000000000 150.000000000],Taps=[1,1.000000000],XHL=3.805000000,%loadloss=1.127000000,%noloadloss=0.280000000
new transformer.317388 Phases=3,Windings=2,Buses=[BMT168401073.1.2.3 BBT2403682.1.2.3.0],Conns=[delta wye],kvs=[13.8 0.22],kvas=[30.000000000 30.000000000],Taps=[1,1.000000000],XHL=3.564000000,%loadloss=1.667000000,%noloadloss=0.433333000
new transformer.371309 Phases=3,Windings=2,Buses=[BMT168400984.1.2.3 BBT3167599.1.2.3.0],Conns=[delta wye],kvs=[13.8 0.22],kvas=[250.000000000 250.000000000],Taps=[1,1.000000000],XHL=4.881000000,%loadloss=0.990000000,%noloadloss=0.280000000
new transformer.1313993 Phases=3,Windings=2,Buses=[BMT168401028.1.2.3 BBT90871447.1.2.3.0],Conns=[delta wye],kvs=[13.8 0.22],kvas=[150.000000000 150.000000000],Taps=[1,1.000000000],XHL=3.805000000,%loadloss=1.127000000,%noloadloss=0.280000000
new transformer.300700 Phases=3,Windings=2,Buses=[BMT168401194.1.2.3 BBT2300726.1.2.3.0],Conns=[delta wye],kvs=[13.8 0.22],kvas=[75.000000000 75.000000000],Taps=[1,1.000000000],XHL=3.721000000,%loadloss=1.340000000,%noloadloss=0.340000000
new transformer.300749 Phases=3,Windings=2,Buses=[BMT168400817.1.2.3 BBT2301076.1.2.3.0],Conns=[delta wye],kvs=[13.8 0.22],kvas=[75.000000000 75.000000000],Taps=[1,1.000000000],XHL=3.721000000,%loadloss=1.340000000,%noloadloss=0.340000000
new transformer.300882 Phases=3,Windings=2,Buses=[BMT169627964.1.2.3 BBT2302336.1.2.3.0],Conns=[delta wye],kvs=[13.8 0.22],kvas=[75.000000000 75.000000000],Taps=[1,1.000000000],XHL=3.721000000,%loadloss=1.340000000,%noloadloss=0.340000000
new transformer.300896 Phases=3,Windings=2,Buses=[BMT169627962.1.2.3 BBT2302427.1.2.3.0],Conns=[delta wye],kvs=[13.8 0.22],kvas=[45.000000000 45.000000000],Taps=[1,1.000000000],XHL=3.636000000,%loadloss=1.522000000,%noloadloss=0.377777000
new transformer.300966 Phases=3,Windings=2,Buses=[BMT168400833.1.2.3 BBT2302861.1.2.3.0],Conns=[delta wye],kvs=[13.8 0.22],kvas=[150.000000000 150.000000000],Taps=[1,1.000000000],XHL=3.805000000,%loadloss=1.127000000,%noloadloss=0.280000000
new transformer.306104 Phases=3,Windings=2,Buses=[BMT172219982.1.2.3 BBT2333801.1.2.3.0],Conns=[delta wye],kvs=[13.8 0.22],kvas=[75.000000000 75.000000000],Taps=[1,1.000000000],XHL=3.721000000,%loadloss=1.340000000,%noloadloss=0.340000000
new transformer.311389 Phases=3,Windings=2,Buses=[BMT168400715.1.2.3 BBT2366624.1.2.3.0],Conns=[delta wye],kvs=[13.8 0.22],kvas=[45.000000000 45.000000000],Taps=[1,1.000000000],XHL=3.636000000,%loadloss=1.522000000,%noloadloss=0.377777000
new transformer.311508 Phases=3,Windings=2,Buses=[BMT168400976.1.2.3 BBT2367261.1.2.3.0],Conns=[delta wye],kvs=[13.8 0.22],kvas=[75.000000000 75.000000000],Taps=[1,1.000000000],XHL=3.721000000,%loadloss=1.340000000,%noloadloss=0.340000000
new transformer.311620 Phases=3,Windings=2,Buses=[BMT168400925.1.2.3 BBT2367884.1.2.3.0],Conns=[delta wye],kvs=[13.8 0.22],kvas=[100.000000000 100.000000000],Taps=[1,1.000000000],XHL=3.771000000,%loadloss=1.218000000,%noloadloss=0.335000000
new transformer.311746 Phases=3,Windings=2,Buses=[BMT168401034.1.2.3 BBT2368437.1.2.3.0],Conns=[delta wye],kvs=[13.8 0.22],kvas=[30.000000000 30.000000000],Taps=[1,1.000000000],XHL=3.564000000,%loadloss=1.667000000,%noloadloss=0.433333000
new transformer.311809 Phases=1,Windings=3,Buses=[BMT168401131.2 BBT2368745.1.0 BBT2368745.0.2],Conns=[wye wye wye],kvs=[7.967 0.12 0.12],kvas=[25.000000000 25.000000000 25.000000000],Taps=[1,1.000000000,1.000000000],XHL=2.344000000,XHT=2.344000000,XLT=1.563000000,%loadloss=1.420000000,%noloadloss=0.320000000
new transformer.311900 Phases=3,Windings=2,Buses=[BMT168401024.1.2.3 BBT2369438.1.2.3.0],Conns=[delta wye],kvs=[13.8 0.22],kvas=[75.000000000 75.000000000],Taps=[1,1.000000000],XHL=3.721000000,%loadloss=1.340000000,%noloadloss=0.340000000
new transformer.319894 Phases=3,Windings=2,Buses=[BMT168400752.1.2.3 BBT2419894.1.2.3.0],Conns=[delta wye],kvs=[13.8 0.22],kvas=[75.000000000 75.000000000],Taps=[1,1.000000000],XHL=3.721000000,%loadloss=1.340000000,%noloadloss=0.340000000
new transformer.319957 Phases=3,Windings=2,Buses=[BMT168401164.1.2.3 BBT2420496.1.2.3.0],Conns=[delta wye],kvs=[13.8 0.22],kvas=[45.000000000 45.000000000],Taps=[1,1.000000000],XHL=3.636000000,%loadloss=1.522000000,%noloadloss=0.377777000
new transformer.366024 Phases=3,Windings=2,Buses=[BMT168401023.1.2.3 BBT2964074.1.2.3.0],Conns=[delta wye],kvs=[13.8 0.22],kvas=[45.000000000 45.000000000],Taps=[1,1.000000000],XHL=3.636000000,%loadloss=1.522000000,%noloadloss=0.377777000
new transformer.366395 Phases=3,Windings=2,Buses=[BMT168401107.1.2.3 BBT2971508.1.2.3.0],Conns=[delta wye],kvs=[13.8 0.22],kvas=[75.000000000 75.000000000],Taps=[1,1.000000000],XHL=3.721000000,%loadloss=1.340000000,%noloadloss=0.340000000
new transformer.366402 Phases=3,Windings=2,Buses=[BMT168401026.1.2.3 BBT2971830.1.2.3.0],Conns=[delta wye],kvs=[13.8 0.22],kvas=[75.000000000 75.000000000],Taps=[1,1.000000000],XHL=3.721000000,%loadloss=1.340000000,%noloadloss=0.340000000
new transformer.366493 Phases=3,Windings=2,Buses=[BMT168401106.1.2.3 BBT2973440.1.2.3.0],Conns=[delta wye],kvs=[13.8 0.22],kvas=[75.000000000 75.000000000],Taps=[1,1.000000000],XHL=3.721000000,%loadloss=1.340000000,%noloadloss=0.340000000
new transformer.386009 Phases=3,Windings=2,Buses=[BMT170022360.1.2.3 BBT3431877.1.2.3.0],Conns=[delta wye],kvs=[13.8 0.22],kvas=[150.000000000 150.000000000],Taps=[1,1.000000000],XHL=3.805000000,%loadloss=1.127000000,%noloadloss=0.280000000
new transformer.1356259 Phases=3,Windings=2,Buses=[BMT170697641.1.2.3 BBT120049624.1.2.3.0],Conns=[delta wye],kvs=[13.8 0.22],kvas=[45.000000000 45.000000000],Taps=[1,1.000000000],XHL=3.636000000,%loadloss=1.522000000,%noloadloss=0.377777000
new transformer.1399100 Phases=3,Windings=2,Buses=[BMT168401186.1.2.3 BBT150108337.1.2.3.0],Conns=[delta wye],kvs=[13.8 0.22],kvas=[100.000000000 100.000000000],Taps=[1,1.000000000],XHL=3.771000000,%loadloss=1.218000000,%noloadloss=0.335000000
new transformer.1440134 Phases=3,Windings=2,Buses=[BMT168401053.1.2.3 BBT159208142.1.2.3.0],Conns=[delta wye],kvs=[13.8 0.22],kvas=[500.000000000 500.000000000],Taps=[1,1.000000000],XHL=4.895000000,%loadloss=1.020000000,%noloadloss=0.260000000
new transformer.305138 Phases=3,Windings=2,Buses=[BMT172219988.1.2.3 BBT2327305.1.2.3.0],Conns=[delta wye],kvs=[13.8 0.22],kvas=[45.000000000 45.000000000],Taps=[1,1.000000000],XHL=3.636000000,%loadloss=1.522000000,%noloadloss=0.377777000
new transformer.305257 Phases=3,Windings=2,Buses=[BMT168400720.1.2.3 BBT2327998.1.2.3.0],Conns=[delta wye],kvs=[13.8 0.22],kvas=[100.000000000 100.000000000],Taps=[1,1.000000000],XHL=3.771000000,%loadloss=1.218000000,%noloadloss=0.335000000
new transformer.305446 Phases=3,Windings=2,Buses=[BMT168400696.1.2.3 BBT2329258.1.2.3.0],Conns=[delta wye],kvs=[13.8 0.22],kvas=[75.000000000 75.000000000],Taps=[1,1.000000000],XHL=3.721000000,%loadloss=1.340000000,%noloadloss=0.340000000
new transformer.305558 Phases=3,Windings=2,Buses=[BMT168400963.1.2.3 BBT2330497.1.2.3.0],Conns=[delta wye],kvs=[13.8 0.22],kvas=[75.000000000 75.000000000],Taps=[1,1.000000000],XHL=3.721000000,%loadloss=1.340000000,%noloadloss=0.340000000
new transformer.305635 Phases=3,Windings=2,Buses=[BMT169627443.1.2.3 BBT2331029.1.2.3.0],Conns=[delta wye],kvs=[13.8 0.22],kvas=[75.000000000 75.000000000],Taps=[1,1.000000000],XHL=3.721000000,%loadloss=1.340000000,%noloadloss=0.340000000
new transformer.310563 Phases=3,Windings=2,Buses=[BMT168401084.1.2.3 BBT2362249.1.2.3.0],Conns=[delta wye],kvs=[13.8 0.22],kvas=[45.000000000 45.000000000],Taps=[1,1.000000000],XHL=3.636000000,%loadloss=1.522000000,%noloadloss=0.377777000
new transformer.310619 Phases=3,Windings=2,Buses=[BMT168400909.1.2.3 BBT2362585.1.2.3.0],Conns=[delta wye],kvs=[13.8 0.22],kvas=[75.000000000 75.000000000],Taps=[1,1.000000000],XHL=3.721000000,%loadloss=1.340000000,%noloadloss=0.340000000
new transformer.310745 Phases=3,Windings=2,Buses=[BMT168400770.1.2.3 BBT2363278.1.2.3.0],Conns=[delta wye],kvs=[13.8 0.22],kvas=[30.000000000 30.000000000],Taps=[1,1.000000000],XHL=3.564000000,%loadloss=1.667000000,%noloadloss=0.433333000
new transformer.310871 Phases=3,Windings=2,Buses=[BMT168401025.1.2.3 BBT2363922.1.2.3.0],Conns=[delta wye],kvs=[13.8 0.22],kvas=[150.000000000 150.000000000],Taps=[1,1.000000000],XHL=3.805000000,%loadloss=1.127000000,%noloadloss=0.280000000
new transformer.311025 Phases=3,Windings=2,Buses=[BMT168400779.1.2.3 BBT2364419.1.2.3.0],Conns=[delta wye],kvs=[13.8 0.22],kvas=[75.000000000 75.000000000],Taps=[1,1.000000000],XHL=3.721000000,%loadloss=1.340000000,%noloadloss=0.340000000
new transformer.311074 Phases=3,Windings=2,Buses=[BMT168401125.1.2.3 BBT2364685.1.2.3.0],Conns=[delta wye],kvs=[13.8 0.22],kvas=[75.000000000 75.000000000],Taps=[1,1.000000000],XHL=3.721000000,%loadloss=1.340000000,%noloadloss=0.340000000
new transformer.311207 Phases=3,Windings=2,Buses=[BMT168400980.1.2.3 BBT2365581.1.2.3.0],Conns=[delta wye],kvs=[13.8 0.22],kvas=[75.000000000 75.000000000],Taps=[1,1.000000000],XHL=3.721000000,%loadloss=1.340000000,%noloadloss=0.340000000
new transformer.316450 Phases=3,Windings=2,Buses=[BMT168400893.1.2.3 BBT2397221.1.2.3.0],Conns=[delta wye],kvs=[13.8 0.22],kvas=[75.000000000 75.000000000],Taps=[1,1.000000000],XHL=3.721000000,%loadloss=1.340000000,%noloadloss=0.340000000
new transformer.316541 Phases=3,Windings=2,Buses=[BMT168400777.1.2.3 BBT2397739.1.2.3.0],Conns=[delta wye],kvs=[13.8 0.22],kvas=[100.000000000 100.000000000],Taps=[1,1.000000000],XHL=3.771000000,%loadloss=1.218000000,%noloadloss=0.335000000
new transformer.316576 Phases=3,Windings=2,Buses=[BMT168401127.1.2.3 BBT2397837.1.2.3.0],Conns=[delta wye],kvs=[13.8 0.22],kvas=[100.000000000 100.000000000],Taps=[1,1.000000000],XHL=3.771000000,%loadloss=1.218000000,%noloadloss=0.335000000
new transformer.323933 Phases=3,Windings=2,Buses=[BMT168436988.1.2.3 BBT2445556.1.2.3.0],Conns=[delta wye],kvs=[13.8 0.22],kvas=[100.000000000 100.000000000],Taps=[1,1.000000000],XHL=3.771000000,%loadloss=1.218000000,%noloadloss=0.335000000
new transformer.324066 Phases=3,Windings=2,Buses=[BMT168436987.1.2.3 BBT2446368.1.2.3.0],Conns=[delta wye],kvs=[13.8 0.22],kvas=[45.000000000 45.000000000],Taps=[1,1.000000000],XHL=3.636000000,%loadloss=1.522000000,%noloadloss=0.377777000
new transformer.392183 Phases=3,Windings=2,Buses=[BMT168400983.1.2.3 BBT3514162.1.2.3.0],Conns=[delta wye],kvs=[13.8 0.22],kvas=[150.000000000 150.000000000],Taps=[1,1.000000000],XHL=3.805000000,%loadloss=1.127000000,%noloadloss=0.280000000
new transformer.384035 Phases=3,Windings=2,Buses=[BMT172553960.1.2.3 BBT3413187.1.2.3.0],Conns=[delta wye],kvs=[13.8 0.22],kvas=[30.000000000 30.000000000],Taps=[1,1.000000000],XHL=3.564000000,%loadloss=1.667000000,%noloadloss=0.433333000
new transformer.1254115 Phases=3,Windings=2,Buses=[BMT168400838.1.2.3 BBT61720598.1.2.3.0],Conns=[delta wye],kvs=[13.8 0.22],kvas=[150.000000000 150.000000000],Taps=[1,1.000000000],XHL=3.805000000,%loadloss=1.127000000,%noloadloss=0.280000000
new transformer.1398074 Phases=3,Windings=2,Buses=[BMT168400849.1.2.3 BBT149875001.1.2.3.0],Conns=[delta wye],kvs=[13.8 0.22],kvas=[45.000000000 45.000000000],Taps=[1,1.000000000],XHL=3.636000000,%loadloss=1.522000000,%noloadloss=0.377777000
new transformer.1482690 Phases=3,Windings=2,Buses=[BMT170697642.1.2.3 BBT168631984.1.2.3.0],Conns=[delta wye],kvs=[13.8 0.22],kvas=[45.000000000 45.000000000],Taps=[1,1.000000000],XHL=3.636000000,%loadloss=1.522000000,%noloadloss=0.377777000
new transformer.268626 Phases=1,Windings=3,Buses=[BMT168401102.1 BBT2104292.1.0 BBT2104292.0.2],Conns=[wye wye wye],kvs=[7.967 0.12 0.12],kvas=[35.000000000 35.000000000 35.000000000],Taps=[1,1.000000000,1.000000000],XHL=2.475000000,XHT=2.475000000,XLT=1.650000000,%loadloss=1.293000000,%noloadloss=0.342857000
new transformer.268724 Phases=3,Windings=2,Buses=[BMT168401101.1.2.3 BBT2104971.1.2.3.0],Conns=[delta wye],kvs=[13.8 0.22],kvas=[75.000000000 75.000000000],Taps=[1,1.000000000],XHL=3.721000000,%loadloss=1.340000000,%noloadloss=0.340000000
new transformer.301078 Phases=3,Windings=2,Buses=[BMT168400841.1.2.3 BBT2303365.1.2.3.0],Conns=[delta wye],kvs=[13.8 0.22],kvas=[75.000000000 75.000000000],Taps=[1,1.000000000],XHL=3.721000000,%loadloss=1.340000000,%noloadloss=0.340000000
new transformer.301190 Phases=3,Windings=2,Buses=[BMT168400723.1.2.3 BBT2303953.1.2.3.0],Conns=[delta wye],kvs=[13.8 0.22],kvas=[45.000000000 45.000000000],Taps=[1,1.000000000],XHL=3.636000000,%loadloss=1.522000000,%noloadloss=0.377777000
new transformer.301218 Phases=3,Windings=2,Buses=[BMT168400816.1.2.3 BBT2304009.1.2.3.0],Conns=[delta wye],kvs=[13.8 0.22],kvas=[150.000000000 150.000000000],Taps=[1,1.000000000],XHL=3.805000000,%loadloss=1.127000000,%noloadloss=0.280000000
new transformer.301421 Phases=3,Windings=2,Buses=[BMT168400815.1.2.3 BBT2305171.1.2.3.0],Conns=[delta wye],kvs=[13.8 0.22],kvas=[100.000000000 100.000000000],Taps=[1,1.000000000],XHL=3.771000000,%loadloss=1.218000000,%noloadloss=0.335000000
new transformer.301540 Phases=3,Windings=2,Buses=[BMT168631171.1.2.3 BBT2305794.1.2.3.0],Conns=[delta wye],kvs=[13.8 0.22],kvas=[150.000000000 150.000000000],Taps=[1,1.000000000],XHL=3.805000000,%loadloss=1.127000000,%noloadloss=0.280000000
new transformer.306587 Phases=3,Windings=2,Buses=[BMT168401104.1.2.3 BBT2337364.1.2.3.0],Conns=[delta wye],kvs=[13.8 0.22],kvas=[75.000000000 75.000000000],Taps=[1,1.000000000],XHL=3.721000000,%loadloss=1.340000000,%noloadloss=0.340000000
new transformer.306622 Phases=3,Windings=2,Buses=[BMT168400971.1.2.3 BBT2337469.1.2.3.0],Conns=[delta wye],kvs=[13.8 0.22],kvas=[75.000000000 75.000000000],Taps=[1,1.000000000],XHL=3.721000000,%loadloss=1.340000000,%noloadloss=0.340000000
new transformer.306720 Phases=3,Windings=2,Buses=[BMT168400938.1.2.3 BBT2338057.1.2.3.0],Conns=[delta wye],kvs=[13.8 0.22],kvas=[75.000000000 75.000000000],Taps=[1,1.000000000],XHL=3.721000000,%loadloss=1.340000000,%noloadloss=0.340000000
new transformer.312103 Phases=3,Windings=2,Buses=[BMT168401080.1.2.3 BBT2370663.1.2.3.0],Conns=[delta wye],kvs=[13.8 0.22],kvas=[75.000000000 75.000000000],Taps=[1,1.000000000],XHL=3.721000000,%loadloss=1.340000000,%noloadloss=0.340000000
new transformer.312117 Phases=3,Windings=2,Buses=[BMT168400763.1.2.3 BBT2370768.1.2.3.0],Conns=[delta wye],kvs=[13.8 0.22],kvas=[100.000000000 100.000000000],Taps=[1,1.000000000],XHL=3.771000000,%loadloss=1.218000000,%noloadloss=0.335000000
new transformer.312565 Phases=3,Windings=2,Buses=[BMT171648391.1.2.3 BBT2373708.1.2.3.0],Conns=[delta wye],kvs=[13.8 0.22],kvas=[45.000000000 45.000000000],Taps=[1,1.000000000],XHL=3.636000000,%loadloss=1.522000000,%noloadloss=0.377777000
new transformer.312579 Phases=3,Windings=2,Buses=[BMT168400904.1.2.3 BBT2373764.1.2.3.0],Conns=[delta wye],kvs=[13.8 0.22],kvas=[100.000000000 100.000000000],Taps=[1,1.000000000],XHL=3.771000000,%loadloss=1.218000000,%noloadloss=0.335000000
new transformer.320531 Phases=3,Windings=2,Buses=[BMT168401076.1.2.3 BBT2423982.1.2.3.0],Conns=[delta wye],kvs=[13.8 0.22],kvas=[75.000000000 75.000000000],Taps=[1,1.000000000],XHL=3.721000000,%loadloss=1.340000000,%noloadloss=0.340000000
new transformer.1318088 Phases=3,Windings=2,Buses=[BMT168401085.1.2.3 BBT92354460.1.2.3.0],Conns=[delta wye],kvs=[13.8 0.22],kvas=[45.000000000 45.000000000],Taps=[1,1.000000000],XHL=3.636000000,%loadloss=1.522000000,%noloadloss=0.377777000
new transformer.303157 Phases=3,Windings=2,Buses=[BMT168400812.1.2.3 BBT2315566.1.2.3.0],Conns=[delta wye],kvs=[13.8 0.22],kvas=[75.000000000 75.000000000],Taps=[1,1.000000000],XHL=3.721000000,%loadloss=1.340000000,%noloadloss=0.340000000
new transformer.303346 Phases=3,Windings=2,Buses=[BMT168400697.1.2.3 BBT2316595.1.2.3.0],Conns=[delta wye],kvs=[13.8 0.22],kvas=[150.000000000 150.000000000],Taps=[1,1.000000000],XHL=3.805000000,%loadloss=1.127000000,%noloadloss=0.280000000
new transformer.303528 Phases=3,Windings=2,Buses=[BMT168400730.1.2.3 BBT2318009.1.2.3.0],Conns=[delta wye],kvs=[13.8 0.22],kvas=[75.000000000 75.000000000],Taps=[1,1.000000000],XHL=3.721000000,%loadloss=1.340000000,%noloadloss=0.340000000
new transformer.303563 Phases=3,Windings=2,Buses=[BMT172539903.1.2.3 BBT2318205.1.2.3.0],Conns=[delta wye],kvs=[13.8 0.22],kvas=[75.000000000 75.000000000],Taps=[1,1.000000000],XHL=3.721000000,%loadloss=1.340000000,%noloadloss=0.340000000
new transformer.309198 Phases=3,Windings=2,Buses=[BMT168400918.1.2.3 BBT2354094.1.2.3.0],Conns=[delta wye],kvs=[13.8 0.22],kvas=[75.000000000 75.000000000],Taps=[1,1.000000000],XHL=3.721000000,%loadloss=1.340000000,%noloadloss=0.340000000
new transformer.309352 Phases=3,Windings=2,Buses=[BMT168400781.1.2.3 BBT2355018.1.2.3.0],Conns=[delta wye],kvs=[13.8 0.22],kvas=[75.000000000 75.000000000],Taps=[1,1.000000000],XHL=3.721000000,%loadloss=1.340000000,%noloadloss=0.340000000
new transformer.309506 Phases=3,Windings=2,Buses=[BMT168400968.1.2.3 BBT2355739.1.2.3.0],Conns=[delta wye],kvs=[13.8 0.22],kvas=[75.000000000 75.000000000],Taps=[1,1.000000000],XHL=3.721000000,%loadloss=1.340000000,%noloadloss=0.340000000
new transformer.309597 Phases=3,Windings=2,Buses=[BMT168400782.1.2.3 BBT2356600.1.2.3.0],Conns=[delta wye],kvs=[13.8 0.22],kvas=[75.000000000 75.000000000],Taps=[1,1.000000000],XHL=3.721000000,%loadloss=1.340000000,%noloadloss=0.340000000
new transformer.314861 Phases=3,Windings=2,Buses=[BMT169508432.1.2.3 BBT2387673.1.2.3.0],Conns=[delta wye],kvs=[13.8 0.22],kvas=[75.000000000 75.000000000],Taps=[1,1.000000000],XHL=3.721000000,%loadloss=1.340000000,%noloadloss=0.340000000
new transformer.315134 Phases=3,Windings=2,Buses=[BMT168401078.1.2.3 BBT2389304.1.2.3.0],Conns=[delta wye],kvs=[13.8 0.22],kvas=[75.000000000 75.000000000],Taps=[1,1.000000000],XHL=3.721000000,%loadloss=1.340000000,%noloadloss=0.340000000
new transformer.315162 Phases=3,Windings=2,Buses=[BMT170022359.1.2.3 BBT2389360.1.2.3.0],Conns=[delta wye],kvs=[13.8 0.22],kvas=[150.000000000 150.000000000],Taps=[1,1.000000000],XHL=3.805000000,%loadloss=1.127000000,%noloadloss=0.280000000
new transformer.315225 Phases=3,Windings=2,Buses=[BMT168400676.1.2.3 BBT2390046.1.2.3.0],Conns=[delta wye],kvs=[13.8 0.22],kvas=[45.000000000 45.000000000],Taps=[1,1.000000000],XHL=3.636000000,%loadloss=1.522000000,%noloadloss=0.377777000
new transformer.317542 Phases=3,Windings=2,Buses=[BMT168401066.1.2.3 BBT2404438.1.2.3.0],Conns=[delta wye],kvs=[13.8 0.22],kvas=[100.000000000 100.000000000],Taps=[1,1.000000000],XHL=3.771000000,%loadloss=1.218000000,%noloadloss=0.335000000
new transformer.317962 Phases=3,Windings=2,Buses=[BMT168400859.1.2.3 BBT2407224.1.2.3.0],Conns=[delta wye],kvs=[13.8 0.22],kvas=[75.000000000 75.000000000],Taps=[1,1.000000000],XHL=3.721000000,%loadloss=1.340000000,%noloadloss=0.340000000
new transformer.296556 Phases=1,Windings=3,Buses=[BMT168400852.1 BBT2272572.1.0 BBT2272572.0.2],Conns=[wye wye wye],kvs=[7.967 0.12 0.12],kvas=[35.000000000 35.000000000 35.000000000],Taps=[1,1.000000000,1.000000000],XHL=2.475000000,XHT=2.475000000,XLT=1.650000000,%loadloss=1.293000000,%noloadloss=0.342857000
new transformer.301946 Phases=3,Windings=2,Buses=[BMT168401046.1.2.3 BBT2308356.1.2.3.0],Conns=[delta wye],kvs=[13.8 0.22],kvas=[100.000000000 100.000000000],Taps=[1,1.000000000],XHL=3.771000000,%loadloss=1.218000000,%noloadloss=0.335000000
new transformer.302240 Phases=3,Windings=2,Buses=[BMT168401044.1.2.3 BBT2310603.1.2.3.0],Conns=[delta wye],kvs=[13.8 0.22],kvas=[150.000000000 150.000000000],Taps=[1,1.000000000],XHL=3.805000000,%loadloss=1.127000000,%noloadloss=0.280000000
new transformer.307147 Phases=3,Windings=2,Buses=[BMT168400954.1.2.3 BBT2340640.1.2.3.0],Conns=[delta wye],kvs=[13.8 0.22],kvas=[75.000000000 75.000000000],Taps=[1,1.000000000],XHL=3.721000000,%loadloss=1.340000000,%noloadloss=0.340000000
new transformer.307196 Phases=3,Windings=2,Buses=[BMT168400828.1.2.3 BBT2340913.1.2.3.0],Conns=[delta wye],kvs=[13.8 0.22],kvas=[100.000000000 100.000000000],Taps=[1,1.000000000],XHL=3.771000000,%loadloss=1.218000000,%noloadloss=0.335000000
new transformer.307392 Phases=3,Windings=2,Buses=[BMT172219990.1.2.3 BBT2342033.1.2.3.0],Conns=[delta wye],kvs=[13.8 0.22],kvas=[75.000000000 75.000000000],Taps=[1,1.000000000],XHL=3.721000000,%loadloss=1.340000000,%noloadloss=0.340000000
new transformer.307497 Phases=3,Windings=2,Buses=[BMT168400809.1.2.3 BBT2342866.1.2.3.0],Conns=[delta wye],kvs=[13.8 0.22],kvas=[75.000000000 75.000000000],Taps=[1,1.000000000],XHL=3.721000000,%loadloss=1.340000000,%noloadloss=0.340000000
new transformer.307532 Phases=3,Windings=2,Buses=[BMT168631173.1.2.3 BBT2343160.1.2.3.0],Conns=[delta wye],kvs=[13.8 0.22],kvas=[75.000000000 75.000000000],Taps=[1,1.000000000],XHL=3.721000000,%loadloss=1.340000000,%noloadloss=0.340000000
new transformer.312684 Phases=3,Windings=2,Buses=[BMT168401033.1.2.3 BBT2374205.1.2.3.0],Conns=[delta wye],kvs=[13.8 0.22],kvas=[75.000000000 75.000000000],Taps=[1,1.000000000],XHL=3.721000000,%loadloss=1.340000000,%noloadloss=0.340000000
new transformer.312796 Phases=3,Windings=2,Buses=[BMT168400927.1.2.3 BBT2374884.1.2.3.0],Conns=[delta wye],kvs=[13.8 0.22],kvas=[75.000000000 75.000000000],Taps=[1,1.000000000],XHL=3.721000000,%loadloss=1.340000000,%noloadloss=0.340000000
new transformer.312824 Phases=3,Windings=2,Buses=[BMT168400774.1.2.3 BBT2375255.1.2.3.0],Conns=[delta wye],kvs=[13.8 0.22],kvas=[45.000000000 45.000000000],Taps=[1,1.000000000],XHL=3.636000000,%loadloss=1.522000000,%noloadloss=0.377777000
new transformer.312873 Phases=3,Windings=2,Buses=[BMT168401118.1.2.3 BBT2375549.1.2.3.0],Conns=[delta wye],kvs=[13.8 0.22],kvas=[75.000000000 75.000000000],Taps=[1,1.000000000],XHL=3.721000000,%loadloss=1.340000000,%noloadloss=0.340000000
new transformer.312887 Phases=3,Windings=2,Buses=[BMT168401130.1.2.3 BBT2375577.1.2.3.0],Conns=[delta wye],kvs=[13.8 0.22],kvas=[75.000000000 75.000000000],Taps=[1,1.000000000],XHL=3.721000000,%loadloss=1.340000000,%noloadloss=0.340000000
new transformer.312950 Phases=3,Windings=2,Buses=[BMT168400684.1.2.3 BBT2375920.1.2.3.0],Conns=[delta wye],kvs=[13.8 0.22],kvas=[75.000000000 75.000000000],Taps=[1,1.000000000],XHL=3.721000000,%loadloss=1.340000000,%noloadloss=0.340000000
new transformer.312999 Phases=3,Windings=2,Buses=[BMT171648389.1.2.3 BBT2376067.1.2.3.0],Conns=[delta wye],kvs=[13.8 0.22],kvas=[30.000000000 30.000000000],Taps=[1,1.000000000],XHL=3.564000000,%loadloss=1.667000000,%noloadloss=0.433333000
new transformer.313076 Phases=3,Windings=2,Buses=[BMT168400888.1.2.3 BBT2376620.1.2.3.0],Conns=[delta wye],kvs=[13.8 0.22],kvas=[30.000000000 30.000000000],Taps=[1,1.000000000],XHL=3.564000000,%loadloss=1.667000000,%noloadloss=0.433333000
new transformer.313216 Phases=3,Windings=2,Buses=[BMT168400776.1.2.3 BBT2377523.1.2.3.0],Conns=[delta wye],kvs=[13.8 0.22],kvas=[30.000000000 30.000000000],Taps=[1,1.000000000],XHL=3.564000000,%loadloss=1.667000000,%noloadloss=0.433333000
new transformer.313265 Phases=3,Windings=2,Buses=[BMT168401147.1.2.3 BBT2377789.1.2.3.0],Conns=[delta wye],kvs=[13.8 0.22],kvas=[150.000000000 150.000000000],Taps=[1,1.000000000],XHL=3.805000000,%loadloss=1.127000000,%noloadloss=0.280000000
new transformer.321525 Phases=3,Windings=2,Buses=[BMT168400744.1.2.3 BBT2430226.1.2.3.0],Conns=[delta wye],kvs=[13.8 0.22],kvas=[45.000000000 45.000000000],Taps=[1,1.000000000],XHL=3.636000000,%loadloss=1.522000000,%noloadloss=0.377777000
new transformer.403677 Phases=3,Windings=2,Buses=[BMT168400861.1.2.3 BBT3653133.1.2.3.0],Conns=[delta wye],kvs=[13.8 0.22],kvas=[150.000000000 150.000000000],Taps=[1,1.000000000],XHL=3.805000000,%loadloss=1.127000000,%noloadloss=0.280000000
new transformer.418545 Phases=3,Windings=2,Buses=[BMT171648392.1.2.3 BBT4057523.1.2.3.0],Conns=[delta wye],kvs=[13.8 0.22],kvas=[75.000000000 75.000000000],Taps=[1,1.000000000],XHL=3.721000000,%loadloss=1.340000000,%noloadloss=0.340000000
