2024_89_CemigReconfigurationCases/1_AlimsCemig/BHPM25/BHPM25SegmentosBT.dss
new line.10147159 bus1=BBT2945993.1.2.3.0,bus2=BBT2946007.1.2.3.0,Phases=3,Linecode=BT803_BT803_4_3_4,Length=0.035351000,Units=km
new line.10147201 bus1=BBT2946007.1.2.3.0,bus2=BBT2946021.1.2.3.0,Phases=3,Linecode=BT803_BT803_4_3_4,Length=0.029975000,Units=km
new line.10147208 bus1=BBT2946007.1.2.3.0,bus2=BBT2946035.1.2.3.0,Phases=3,Linecode=BT803_BT803_4_3_4,Length=0.036259000,Units=km
new line.10147278 bus1=BBT2946021.1.2.3.0,bus2=BBT2941212.1.2.3.0,Phases=3,Linecode=BT803_BT803_4_3_4,Length=0.019703000,Units=km
new line.10147509 bus1=BBT2946035.1.2.3.0,bus2=BBT2951299.1.2.3.0,Phases=3,Linecode=BT803_BT803_4_3_4,Length=0.036259000,Units=km
new line.10149035 bus1=BBT2946721.1.2.3.0,bus2=BBT2946742.1.2.3.0,Phases=3,Linecode=BT805_BT805_4_3_4,Length=0.037587000,Units=km
new line.10149077 bus1=BBT2946728.1.2.3.0,bus2=BBT2946735.1.2.3.0,Phases=3,Linecode=BT805_BT805_4_3_4,Length=0.032704000,Units=km
new line.10149119 bus1=BBT2946833.1.2.3.0,bus2=BBT2946840.1.2.3.0,Phases=3,Linecode=BT803_BT803_4_3_4,Length=0.026026000,Units=km
new line.10149140 bus1=BBT2946819.1.2.3.0,bus2=BBT2946833.1.2.3.0,Phases=3,Linecode=BT803_BT803_4_3_4,Length=0.012004000,Units=km
new line.10149147 bus1=BBT2946819.1.2.3.0,bus2=BBT3021733.1.2.3.0,Phases=3,Linecode=BT803_BT803_4_3_4,Length=0.010003000,Units=km
new line.10149196 bus1=BBT2946805.1.2.3.0,bus2=BBT2946819.1.2.3.0,Phases=3,Linecode=BT803_BT803_4_3_4,Length=0.014146000,Units=km
new line.10149224 bus1=BBT2946798.1.2.3.0,bus2=BBT2946805.1.2.3.0,Phases=3,Linecode=BT803_BT803_4_3_4,Length=0.020621000,Units=km
new line.10151905 bus1=BBT2948324.1.2.3.0,bus2=BBT2948331.1.2.3.0,Phases=3,Linecode=BT805_BT805_4_3_4,Length=0.031631000,Units=km
new line.10151912 bus1=BBT2948324.1.2.3.0,bus2=BBT2948457.1.2.3.0,Phases=3,Linecode=BT803_BT803_4_3_4,Length=0.030684000,Units=km
new line.10151961 bus1=BBT2948345.1.2.3.0,bus2=BBT61713542.1.2.3.0,Phases=3,Linecode=BT803_BT803_4_3_4,Length=0.007073000,Units=km
new line.10151968 bus1=BBT61713542.1.2.3.0,bus2=BBT2948352.1.2.3.0,Phases=3,Linecode=BT803_BT803_4_3_4,Length=0.025087000,Units=km
new line.10152003 bus1=BBT2948366.1.2.3.0,bus2=BBT2948359.1.2.3.0,Phases=3,Linecode=BT803_BT803_4_3_4,Length=0.029740000,Units=km
new line.10152024 bus1=BBT2948366.1.2.3.0,bus2=BBT2948373.1.2.3.0,Phases=3,Linecode=BT803_BT803_4_3_4,Length=0.034795000,Units=km
new line.10152052 bus1=BBT2948373.1.2.3.0,bus2=BBT2948380.1.2.3.0,Phases=3,Linecode=BT803_BT803_4_3_4,Length=0.035138000,Units=km
new line.10152080 bus1=BBT2948380.1.2.3.0,bus2=BBT2948387.1.2.3.0,Phases=3,Linecode=BT803_BT803_4_3_4,Length=0.033550000,Units=km
new line.10152157 bus1=BBT2975827.1.2.3.0,bus2=BBT2975834.1.2.3.0,Phases=3,Linecode=BT803_BT803_4_3_4,Length=0.028468000,Units=km
new line.10152164 bus1=BBT2975827.1.2.3.0,bus2=BBT2975841.1.2.3.0,Phases=3,Linecode=BT803_BT803_4_3_4,Length=0.024090000,Units=km
new line.10158142 bus1=BBT2949241.1.2.3.0,bus2=BBT2949248.1.2.3.0,Phases=3,Linecode=BT805_BT805_4_3_4,Length=0.033847000,Units=km
new line.10158170 bus1=BBT2949234.1.2.3.0,bus2=BBT2949241.1.2.3.0,Phases=3,Linecode=BT805_BT805_4_3_4,Length=0.034795000,Units=km
new line.10158212 bus1=BBT2949199.1.2.3.0,bus2=BBT2949220.1.2.3.0,Phases=3,Linecode=BT803_BT803_4_3_4,Length=0.036410000,Units=km
new line.10159906 bus1=BBT2949871.1.2.3.0,bus2=BBT2949878.1.2.3.0,Phases=3,Linecode=BT108_BT107_7_3_1,Length=0.031250000,Units=km
new line.10159934 bus1=BBT2949934.1.2.3.0,bus2=BBT2949941.1.2.3.0,Phases=3,Linecode=BT107_BT107_7_3_1,Length=0.031025000,Units=km
new line.10159962 bus1=BBT2949920.1.2.3.0,bus2=BBT2949934.1.2.3.0,Phases=3,Linecode=BT107_BT107_7_3_1,Length=0.028468000,Units=km
new line.10160004 bus1=BBT2949892.1.2.3.0,bus2=BBT2949899.1.2.3.0,Phases=3,Linecode=BT107_BT107_7_3_1,Length=0.031393000,Units=km
new line.10160025 bus1=BBT2949899.1.2.3.0,bus2=BBT2949906.1.2.3.0,Phases=3,Linecode=BT107_BT107_7_3_1,Length=0.029555000,Units=km
new line.10160046 bus1=BBT2949906.1.2.3.0,bus2=BBT2949913.1.2.3.0,Phases=3,Linecode=BT107_BT107_7_3_1,Length=0.030158000,Units=km
new line.10160417 bus1=BBT2949857.1.2.3.0,bus2=BBT2949864.1.2.3.0,Phases=3,Linecode=BT108_BT107_7_3_1,Length=0.038338000,Units=km
new line.10160438 bus1=BBT2949864.1.2.3.0,bus2=BBT2949997.1.2.3.0,Phases=3,Linecode=BT803_BT803_4_3_4,Length=0.039470000,Units=km
new line.10160522 bus1=BBT2949997.1.2.3.0,bus2=BBT2950011.1.2.3.0,Phases=3,Linecode=BT803_BT803_4_3_4,Length=0.035237000,Units=km
new line.10160557 bus1=BBT2950011.1.2.3.0,bus2=BBT3010813.1.2.3.0,Phases=3,Linecode=BT803_BT803_4_3_4,Length=0.036902000,Units=km
new line.10160767 bus1=BBT2949885.1.2.3.0,bus2=BBT2949920.1.2.3.0,Phases=3,Linecode=BT108_BT107_7_3_1,Length=0.007213000,Units=km
new line.10160774 bus1=BBT2949885.1.2.3.0,bus2=BBT2949927.1.2.3.0,Phases=3,Linecode=BT108_BT107_7_3_1,Length=0.028870000,Units=km
new line.10160781 bus1=BBT2949885.1.2.3.0,bus2=BBT2949892.1.2.3.0,Phases=3,Linecode=BT108_BT107_7_3_1,Length=0.020524000,Units=km
...